*SOIL WATER BY LAYER DAILY OUTPUT FILE

*DSSAT Cropping System Model Ver. 4.8.5.021 -develop  JUL 11, 2025 15:07:12

!----------------------------
! Variable Descriptions (unit)
!----------------------------
!YEAR    Year of current date of simulation (YYYY)
!DOY     Day of year (d)
!DAS     Days after start of simulation (d)
!LL#D    Volumetric soil water content at Lower Limit in soil layer # (cm3 [water] / cm3 [soil])
!DUL#D   Volumetric soil water content at Drained Upper Limit in soil layer # (cm3[water]/cm3[soil])
!SAT#D   Volumetric soil water content at Saturation in soil layer # (cm3 [water] / cm3 [soil])
!BD#D    Bulk density in soil layer # (g [soil] / cm3 [soil])
!SW#D    Volumetric soil water content in soil layer #  (cm3 [water] / cm3 [soil])

!                    0-5    5-15   15-30   30-45   45-60   60-90  90-120 120-150 150-180     0-5    5-15   15-30   30-45   45-60   60-90  90-120 120-150 150-180     0-5    5-15   15-30   30-45   45-60   60-90  90-120 120-150 150-180     0-5    5-15   15-30   30-45   45-60   60-90  90-120 120-150 150-180     0-5    5-15   15-30   30-45   45-60   60-90  90-120 120-150 150-180
@YEAR DOY   DAS     LL1D    LL2D    LL3D    LL4D    LL5D    LL6D    LL7D    LL8D    LL9D   DUL1D   DUL2D   DUL3D   DUL4D   DUL5D   DUL6D   DUL7D   DUL8D   DUL9D   SAT1D   SAT2D   SAT3D   SAT4D   SAT5D   SAT6D   SAT7D   SAT8D   SAT9D    BD1D    BD2D    BD3D    BD4D    BD5D    BD6D    BD7D    BD8D    BD9D    SW1D    SW2D    SW3D    SW4D    SW5D    SW6D    SW7D    SW8D    SW9D
 1982 056     1   0.0260  0.0250  0.0250  0.0250  0.0250  0.0280  0.0280  0.0290  0.0700  0.0960  0.0860  0.0860  0.0860  0.0860  0.0900  0.0900  0.1300  0.2580  0.2300  0.2300  0.2300  0.2300  0.2300  0.2300  0.2300  0.2300  0.3600  1.3000  1.3000  1.4000  1.4000  1.4000  1.4500  1.4500  1.4500  1.2000  0.0796  0.0856  0.0859  0.0860  0.0860  0.0760  0.0760  0.1300  0.2580
 1982 057     2   0.0260  0.0250  0.0250  0.0250  0.0250  0.0280  0.0280  0.0290  0.0700  0.0960  0.0860  0.0860  0.0860  0.0860  0.0900  0.0900  0.1300  0.2580  0.2300  0.2300  0.2300  0.2300  0.2300  0.2300  0.2300  0.2300  0.3600  1.3000  1.3000  1.4000  1.4000  1.4000  1.4500  1.4500  1.4500  1.2000  0.0737  0.0852  0.0859  0.0859  0.0860  0.0760  0.0760  0.1300  0.2580
 1982 058     3   0.0260  0.0250  0.0250  0.0250  0.0250  0.0280  0.0280  0.0290  0.0700  0.0960  0.0860  0.0860  0.0860  0.0860  0.0900  0.0900  0.1300  0.2580  0.2300  0.2300  0.2300  0.2300  0.2300  0.2300  0.2300  0.2300  0.3600  1.3000  1.3000  1.4000  1.4000  1.4000  1.4500  1.4500  1.4500  1.2000  0.0683  0.0848  0.0858  0.0859  0.0860  0.0760  0.0760  0.1300  0.2580
 1982 059     4   0.0260  0.0250  0.0250  0.0250  0.0250  0.0280  0.0280  0.0290  0.0700  0.0960  0.0860  0.0860  0.0860  0.0860  0.0900  0.0900  0.1300  0.2580  0.2300  0.2300  0.2300  0.2300  0.2300  0.2300  0.2300  0.2300  0.3600  1.3000  1.3000  1.4000  1.4000  1.4000  1.4500  1.4500  1.4500  1.2000  0.0633  0.0845  0.0857  0.0859  0.0859  0.0760  0.0760  0.1300  0.2580
 1982 060     5   0.0260  0.0250  0.0250  0.0250  0.0250  0.0280  0.0280  0.0290  0.0700  0.0960  0.0860  0.0860  0.0860  0.0860  0.0900  0.0900  0.1300  0.2580  0.2300  0.2300  0.2300  0.2300  0.2300  0.2300  0.2300  0.2300  0.3600  1.3000  1.3000  1.4000  1.4000  1.4000  1.4500  1.4500  1.4500  1.2000  0.0588  0.0841  0.0856  0.0859  0.0859  0.0760  0.0760  0.1300  0.2580
 1982 061     6   0.0260  0.0250  0.0250  0.0250  0.0250  0.0280  0.0280  0.0290  0.0700  0.0960  0.0860  0.0860  0.0860  0.0860  0.0900  0.0900  0.1300  0.2580  0.2300  0.2300  0.2300  0.2300  0.2300  0.2300  0.2300  0.2300  0.3600  1.3000  1.3000  1.4000  1.4000  1.4000  1.4500  1.4500  1.4500  1.2000  0.0546  0.0837  0.0856  0.0858  0.0859  0.0760  0.0760  0.1300  0.2580
 1982 062     7   0.0260  0.0250  0.0250  0.0250  0.0250  0.0280  0.0280  0.0290  0.0700  0.0960  0.0860  0.0860  0.0860  0.0860  0.0900  0.0900  0.1300  0.2580  0.2300  0.2300  0.2300  0.2300  0.2300  0.2300  0.2300  0.2300  0.3600  1.3000  1.3000  1.4000  1.4000  1.4000  1.4500  1.4500  1.4500  1.2000  0.0507  0.0833  0.0855  0.0858  0.0859  0.0760  0.0760  0.1300  0.2580
 1982 063     8   0.0260  0.0250  0.0250  0.0250  0.0250  0.0280  0.0280  0.0290  0.0700  0.0960  0.0860  0.0860  0.0860  0.0860  0.0900  0.0900  0.1300  0.2580  0.2300  0.2300  0.2300  0.2300  0.2300  0.2300  0.2300  0.2300  0.3600  1.3000  1.3000  1.4000  1.4000  1.4000  1.4500  1.4500  1.4500  1.2000  0.1388  0.1082  0.0950  0.0917  0.0895  0.0795  0.0753  0.1290  0.2562
 1982 064     9   0.0260  0.0250  0.0250  0.0250  0.0250  0.0280  0.0280  0.0290  0.0700  0.0960  0.0860  0.0860  0.0860  0.0860  0.0900  0.0900  0.1300  0.2580  0.2300  0.2300  0.2300  0.2300  0.2300  0.2300  0.2300  0.2300  0.3600  1.3000  1.3000  1.4000  1.4000  1.4000  1.4500  1.4500  1.4500  1.2000  0.1430  0.1184  0.1031  0.0991  0.0956  0.0886  0.0750  0.1285  0.2555
 1982 065    10   0.0260  0.0250  0.0250  0.0250  0.0250  0.0280  0.0280  0.0290  0.0700  0.0960  0.0860  0.0860  0.0860  0.0860  0.0900  0.0900  0.1300  0.2580  0.2300  0.2300  0.2300  0.2300  0.2300  0.2300  0.2300  0.2300  0.3600  1.3000  1.3000  1.4000  1.4000  1.4000  1.4500  1.4500  1.4500  1.2000  0.1390  0.1323  0.1342  0.1349  0.1352  0.1067  0.0956  0.1327  0.2582
 1982 066    11   0.0260  0.0250  0.0250  0.0250  0.0250  0.0280  0.0280  0.0290  0.0700  0.0960  0.0860  0.0860  0.0860  0.0860  0.0900  0.0900  0.1300  0.2580  0.2300  0.2300  0.2300  0.2300  0.2300  0.2300  0.2300  0.2300  0.3600  1.3000  1.3000  1.4000  1.4000  1.4000  1.4500  1.4500  1.4500  1.2000  0.1417  0.1329  0.1316  0.1327  0.1334  0.1109  0.1055  0.1408  0.2645
 1982 067    12   0.0260  0.0250  0.0250  0.0250  0.0250  0.0280  0.0280  0.0290  0.0700  0.0960  0.0860  0.0860  0.0860  0.0860  0.0900  0.0900  0.1300  0.2580  0.2300  0.2300  0.2300  0.2300  0.2300  0.2300  0.2300  0.2300  0.3600  1.3000  1.3000  1.4000  1.4000  1.4000  1.4500  1.4500  1.4500  1.2000  0.0977  0.0975  0.0992  0.1004  0.1010  0.0962  0.0946  0.1327  0.2585
 1982 068    13   0.0260  0.0250  0.0250  0.0250  0.0250  0.0280  0.0280  0.0290  0.0700  0.0960  0.0860  0.0860  0.0860  0.0860  0.0900  0.0900  0.1300  0.2580  0.2300  0.2300  0.2300  0.2300  0.2300  0.2300  0.2300  0.2300  0.3600  1.3000  1.3000  1.4000  1.4000  1.4000  1.4500  1.4500  1.4500  1.2000  0.0854  0.0857  0.0882  0.0893  0.0899  0.0911  0.0908  0.1317  0.2568
 1982 069    14   0.0260  0.0250  0.0250  0.0250  0.0250  0.0280  0.0280  0.0290  0.0700  0.0960  0.0860  0.0860  0.0860  0.0860  0.0900  0.0900  0.1300  0.2580  0.2300  0.2300  0.2300  0.2300  0.2300  0.2300  0.2300  0.2300  0.3600  1.3000  1.3000  1.4000  1.4000  1.4000  1.4500  1.4500  1.4500  1.2000  0.0748  0.0817  0.0858  0.0855  0.0861  0.0901  0.0899  0.1307  0.2563
 1982 070    15   0.0260  0.0250  0.0250  0.0250  0.0250  0.0280  0.0280  0.0290  0.0700  0.0960  0.0860  0.0860  0.0860  0.0860  0.0900  0.0900  0.1300  0.2580  0.2300  0.2300  0.2300  0.2300  0.2300  0.2300  0.2300  0.2300  0.3600  1.3000  1.3000  1.4000  1.4000  1.4000  1.4500  1.4500  1.4500  1.2000  0.0655  0.0778  0.0835  0.0839  0.0848  0.0890  0.0891  0.1296  0.2546
 1982 071    16   0.0260  0.0250  0.0250  0.0250  0.0250  0.0280  0.0280  0.0290  0.0700  0.0960  0.0860  0.0860  0.0860  0.0860  0.0900  0.0900  0.1300  0.2580  0.2300  0.2300  0.2300  0.2300  0.2300  0.2300  0.2300  0.2300  0.3600  1.3000  1.3000  1.4000  1.4000  1.4000  1.4500  1.4500  1.4500  1.2000  0.0607  0.0773  0.0834  0.0839  0.0848  0.0890  0.0891  0.1296  0.2546
 1982 072    17   0.0260  0.0250  0.0250  0.0250  0.0250  0.0280  0.0280  0.0290  0.0700  0.0960  0.0860  0.0860  0.0860  0.0860  0.0900  0.0900  0.1300  0.2580  0.2300  0.2300  0.2300  0.2300  0.2300  0.2300  0.2300  0.2300  0.3600  1.3000  1.3000  1.4000  1.4000  1.4000  1.4500  1.4500  1.4500  1.2000  0.0562  0.0768  0.0833  0.0839  0.0848  0.0890  0.0891  0.1296  0.2546
 1982 073    18   0.0260  0.0250  0.0250  0.0250  0.0250  0.0280  0.0280  0.0290  0.0700  0.0960  0.0860  0.0860  0.0860  0.0860  0.0900  0.0900  0.1300  0.2580  0.2300  0.2300  0.2300  0.2300  0.2300  0.2300  0.2300  0.2300  0.3600  1.3000  1.3000  1.4000  1.4000  1.4000  1.4500  1.4500  1.4500  1.2000  0.0522  0.0762  0.0831  0.0838  0.0848  0.0890  0.0891  0.1296  0.2545
 1982 074    19   0.0260  0.0250  0.0250  0.0250  0.0250  0.0280  0.0280  0.0290  0.0700  0.0960  0.0860  0.0860  0.0860  0.0860  0.0900  0.0900  0.1300  0.2580  0.2300  0.2300  0.2300  0.2300  0.2300  0.2300  0.2300  0.2300  0.3600  1.3000  1.3000  1.4000  1.4000  1.4000  1.4500  1.4500  1.4500  1.2000  0.0485  0.0755  0.0829  0.0838  0.0847  0.0890  0.0891  0.1296  0.2545
 1982 075    20   0.0260  0.0250  0.0250  0.0250  0.0250  0.0280  0.0280  0.0290  0.0700  0.0960  0.0860  0.0860  0.0860  0.0860  0.0900  0.0900  0.1300  0.2580  0.2300  0.2300  0.2300  0.2300  0.2300  0.2300  0.2300  0.2300  0.3600  1.3000  1.3000  1.4000  1.4000  1.4000  1.4500  1.4500  1.4500  1.2000  0.0450  0.0745  0.0826  0.0838  0.0847  0.0890  0.0891  0.1296  0.2545
 1982 076    21   0.0260  0.0250  0.0250  0.0250  0.0250  0.0280  0.0280  0.0290  0.0700  0.0960  0.0860  0.0860  0.0860  0.0860  0.0900  0.0900  0.1300  0.2580  0.2300  0.2300  0.2300  0.2300  0.2300  0.2300  0.2300  0.2300  0.3600  1.3000  1.3000  1.4000  1.4000  1.4000  1.4500  1.4500  1.4500  1.2000  0.0419  0.0731  0.0821  0.0838  0.0847  0.0890  0.0891  0.1296  0.2545
 1982 077    22   0.0260  0.0250  0.0250  0.0250  0.0250  0.0280  0.0280  0.0290  0.0700  0.0960  0.0860  0.0860  0.0860  0.0860  0.0900  0.0900  0.1300  0.2580  0.2300  0.2300  0.2300  0.2300  0.2300  0.2300  0.2300  0.2300  0.3600  1.3000  1.3000  1.4000  1.4000  1.4000  1.4500  1.4500  1.4500  1.2000  0.0390  0.0714  0.0815  0.0837  0.0847  0.0890  0.0891  0.1296  0.2545
 1982 078    23   0.0260  0.0250  0.0250  0.0250  0.0250  0.0280  0.0280  0.0290  0.0700  0.0960  0.0860  0.0860  0.0860  0.0860  0.0900  0.0900  0.1300  0.2580  0.2300  0.2300  0.2300  0.2300  0.2300  0.2300  0.2300  0.2300  0.3600  1.3000  1.3000  1.4000  1.4000  1.4000  1.4500  1.4500  1.4500  1.2000  0.0709  0.0693  0.0807  0.0837  0.0847  0.0890  0.0891  0.1296  0.2545
 1982 079    24   0.0260  0.0250  0.0250  0.0250  0.0250  0.0280  0.0280  0.0290  0.0700  0.0960  0.0860  0.0860  0.0860  0.0860  0.0900  0.0900  0.1300  0.2580  0.2300  0.2300  0.2300  0.2300  0.2300  0.2300  0.2300  0.2300  0.3600  1.3000  1.3000  1.4000  1.4000  1.4000  1.4500  1.4500  1.4500  1.2000  0.0627  0.0676  0.0799  0.0837  0.0847  0.0890  0.0891  0.1296  0.2545
 1982 080    25   0.0260  0.0250  0.0250  0.0250  0.0250  0.0280  0.0280  0.0290  0.0700  0.0960  0.0860  0.0860  0.0860  0.0860  0.0900  0.0900  0.1300  0.2580  0.2300  0.2300  0.2300  0.2300  0.2300  0.2300  0.2300  0.2300  0.3600  1.3000  1.3000  1.4000  1.4000  1.4000  1.4500  1.4500  1.4500  1.2000  0.0567  0.0659  0.0789  0.0836  0.0847  0.0890  0.0891  0.1296  0.2545
 1982 081    26   0.0260  0.0250  0.0250  0.0250  0.0250  0.0280  0.0280  0.0290  0.0700  0.0960  0.0860  0.0860  0.0860  0.0860  0.0900  0.0900  0.1300  0.2580  0.2300  0.2300  0.2300  0.2300  0.2300  0.2300  0.2300  0.2300  0.3600  1.3000  1.3000  1.4000  1.4000  1.4000  1.4500  1.4500  1.4500  1.2000  0.0578  0.0644  0.0777  0.0835  0.0846  0.0890  0.0891  0.1296  0.2545
 1982 082    27   0.0260  0.0250  0.0250  0.0250  0.0250  0.0280  0.0280  0.0290  0.0700  0.0960  0.0860  0.0860  0.0860  0.0860  0.0900  0.0900  0.1300  0.2580  0.2300  0.2300  0.2300  0.2300  0.2300  0.2300  0.2300  0.2300  0.3600  1.3000  1.3000  1.4000  1.4000  1.4000  1.4500  1.4500  1.4500  1.2000  0.1394  0.0903  0.0853  0.0822  0.0836  0.0881  0.0884  0.1288  0.2531
 1982 083    28   0.0260  0.0250  0.0250  0.0250  0.0250  0.0280  0.0280  0.0290  0.0700  0.0960  0.0860  0.0860  0.0860  0.0860  0.0900  0.0900  0.1300  0.2580  0.2300  0.2300  0.2300  0.2300  0.2300  0.2300  0.2300  0.2300  0.3600  1.3000  1.3000  1.4000  1.4000  1.4000  1.4500  1.4500  1.4500  1.2000  0.1438  0.0989  0.0912  0.0882  0.0882  0.0878  0.0882  0.1285  0.2527
 1982 084    29   0.0260  0.0250  0.0250  0.0250  0.0250  0.0280  0.0280  0.0290  0.0700  0.0960  0.0860  0.0860  0.0860  0.0860  0.0900  0.0900  0.1300  0.2580  0.2300  0.2300  0.2300  0.2300  0.2300  0.2300  0.2300  0.2300  0.3600  1.3000  1.3000  1.4000  1.4000  1.4000  1.4500  1.4500  1.4500  1.2000  0.1291  0.1280  0.1319  0.1204  0.1090  0.0962  0.0933  0.1312  0.2550
 1982 085    30   0.0260  0.0250  0.0250  0.0250  0.0250  0.0280  0.0280  0.0290  0.0700  0.0960  0.0860  0.0860  0.0860  0.0860  0.0900  0.0900  0.1300  0.2580  0.2300  0.2300  0.2300  0.2300  0.2300  0.2300  0.2300  0.2300  0.3600  1.3000  1.3000  1.4000  1.4000  1.4000  1.4500  1.4500  1.4500  1.2000  0.1112  0.1010  0.1074  0.1128  0.1115  0.0999  0.0974  0.1348  0.2591
 1982 086    31   0.0260  0.0250  0.0250  0.0250  0.0250  0.0280  0.0280  0.0290  0.0700  0.0960  0.0860  0.0860  0.0860  0.0860  0.0900  0.0900  0.1300  0.2580  0.2300  0.2300  0.2300  0.2300  0.2300  0.2300  0.2300  0.2300  0.3600  1.3000  1.3000  1.4000  1.4000  1.4000  1.4500  1.4500  1.4500  1.2000  0.0898  0.0861  0.0905  0.0940  0.0940  0.0928  0.0921  0.1310  0.2580
 1982 087    32   0.0260  0.0250  0.0250  0.0250  0.0250  0.0280  0.0280  0.0290  0.0700  0.0960  0.0860  0.0860  0.0860  0.0860  0.0900  0.0900  0.1300  0.2580  0.2300  0.2300  0.2300  0.2300  0.2300  0.2300  0.2300  0.2300  0.3600  1.3000  1.3000  1.4000  1.4000  1.4000  1.4500  1.4500  1.4500  1.2000  0.1482  0.1078  0.0968  0.0960  0.0953  0.0939  0.0932  0.1324  0.2594
 1982 088    33   0.0260  0.0250  0.0250  0.0250  0.0250  0.0280  0.0280  0.0290  0.0700  0.0960  0.0860  0.0860  0.0860  0.0860  0.0900  0.0900  0.1300  0.2580  0.2300  0.2300  0.2300  0.2300  0.2300  0.2300  0.2300  0.2300  0.3600  1.3000  1.3000  1.4000  1.4000  1.4000  1.4500  1.4500  1.4500  1.2000  0.1409  0.1320  0.1339  0.1273  0.1162  0.1009  0.0982  0.1359  0.2619
 1982 089    34   0.0260  0.0250  0.0250  0.0250  0.0250  0.0280  0.0280  0.0290  0.0700  0.0960  0.0860  0.0860  0.0860  0.0860  0.0900  0.0900  0.1300  0.2580  0.2300  0.2300  0.2300  0.2300  0.2300  0.2300  0.2300  0.2300  0.3600  1.3000  1.3000  1.4000  1.4000  1.4000  1.4500  1.4500  1.4500  1.2000  0.0916  0.0927  0.0972  0.0978  0.0951  0.0927  0.0920  0.1310  0.2576
 1982 090    35   0.0260  0.0250  0.0250  0.0250  0.0250  0.0280  0.0280  0.0290  0.0700  0.0960  0.0860  0.0860  0.0860  0.0860  0.0900  0.0900  0.1300  0.2580  0.2300  0.2300  0.2300  0.2300  0.2300  0.2300  0.2300  0.2300  0.3600  1.3000  1.3000  1.4000  1.4000  1.4000  1.4500  1.4500  1.4500  1.2000  0.0771  0.0812  0.0856  0.0880  0.0880  0.0918  0.0913  0.1301  0.2564
 1982 091    36   0.0260  0.0250  0.0250  0.0250  0.0250  0.0280  0.0280  0.0290  0.0700  0.0960  0.0860  0.0860  0.0860  0.0860  0.0900  0.0900  0.1300  0.2580  0.2300  0.2300  0.2300  0.2300  0.2300  0.2300  0.2300  0.2300  0.3600  1.3000  1.3000  1.4000  1.4000  1.4000  1.4500  1.4500  1.4500  1.2000  0.0621  0.0729  0.0805  0.0855  0.0866  0.0907  0.0904  0.1291  0.2547
 1982 092    37   0.0260  0.0250  0.0250  0.0250  0.0250  0.0280  0.0280  0.0290  0.0700  0.0960  0.0860  0.0860  0.0860  0.0860  0.0900  0.0900  0.1300  0.2580  0.2300  0.2300  0.2300  0.2300  0.2300  0.2300  0.2300  0.2300  0.3600  1.3000  1.3000  1.4000  1.4000  1.4000  1.4500  1.4500  1.4500  1.2000  0.0521  0.0641  0.0749  0.0828  0.0852  0.0897  0.0896  0.1281  0.2530
 1982 093    38   0.0260  0.0250  0.0250  0.0250  0.0250  0.0280  0.0280  0.0290  0.0700  0.0960  0.0860  0.0860  0.0860  0.0860  0.0900  0.0900  0.1300  0.2580  0.2300  0.2300  0.2300  0.2300  0.2300  0.2300  0.2300  0.2300  0.3600  1.3000  1.3000  1.4000  1.4000  1.4000  1.4500  1.4500  1.4500  1.2000  0.0479  0.0618  0.0724  0.0819  0.0851  0.0897  0.0896  0.1281  0.2530
 1982 094    39   0.0260  0.0250  0.0250  0.0250  0.0250  0.0280  0.0280  0.0290  0.0700  0.0960  0.0860  0.0860  0.0860  0.0860  0.0900  0.0900  0.1300  0.2580  0.2300  0.2300  0.2300  0.2300  0.2300  0.2300  0.2300  0.2300  0.3600  1.3000  1.3000  1.4000  1.4000  1.4000  1.4500  1.4500  1.4500  1.2000  0.0439  0.0581  0.0670  0.0801  0.0847  0.0897  0.0896  0.1281  0.2530
 1982 095    40   0.0260  0.0250  0.0250  0.0250  0.0250  0.0280  0.0280  0.0290  0.0700  0.0960  0.0860  0.0860  0.0860  0.0860  0.0900  0.0900  0.1300  0.2580  0.2300  0.2300  0.2300  0.2300  0.2300  0.2300  0.2300  0.2300  0.3600  1.3000  1.3000  1.4000  1.4000  1.4000  1.4500  1.4500  1.4500  1.2000  0.0404  0.0554  0.0629  0.0782  0.0843  0.0897  0.0896  0.1281  0.2530
 1982 096    41   0.0260  0.0250  0.0250  0.0250  0.0250  0.0280  0.0280  0.0290  0.0700  0.0960  0.0860  0.0860  0.0860  0.0860  0.0900  0.0900  0.1300  0.2580  0.2300  0.2300  0.2300  0.2300  0.2300  0.2300  0.2300  0.2300  0.3600  1.3000  1.3000  1.4000  1.4000  1.4000  1.4500  1.4500  1.4500  1.2000  0.0372  0.0522  0.0585  0.0749  0.0833  0.0897  0.0896  0.1281  0.2530
 1982 097    42   0.0260  0.0250  0.0250  0.0250  0.0250  0.0280  0.0280  0.0290  0.0700  0.0960  0.0860  0.0860  0.0860  0.0860  0.0900  0.0900  0.1300  0.2580  0.2300  0.2300  0.2300  0.2300  0.2300  0.2300  0.2300  0.2300  0.3600  1.3000  1.3000  1.4000  1.4000  1.4000  1.4500  1.4500  1.4500  1.2000  0.0343  0.0496  0.0553  0.0710  0.0819  0.0896  0.0896  0.1281  0.2530
 1982 098    43   0.0260  0.0250  0.0250  0.0250  0.0250  0.0280  0.0280  0.0290  0.0700  0.0960  0.0860  0.0860  0.0860  0.0860  0.0900  0.0900  0.1300  0.2580  0.2300  0.2300  0.2300  0.2300  0.2300  0.2300  0.2300  0.2300  0.3600  1.3000  1.3000  1.4000  1.4000  1.4000  1.4500  1.4500  1.4500  1.2000  0.1512  0.1362  0.1362  0.1300  0.1132  0.0987  0.0955  0.1329  0.2584
 1982 099    44   0.0260  0.0250  0.0250  0.0250  0.0250  0.0280  0.0280  0.0290  0.0700  0.0960  0.0860  0.0860  0.0860  0.0860  0.0900  0.0900  0.1300  0.2580  0.2300  0.2300  0.2300  0.2300  0.2300  0.2300  0.2300  0.2300  0.3600  1.3000  1.3000  1.4000  1.4000  1.4000  1.4500  1.4500  1.4500  1.2000  0.1416  0.1323  0.1339  0.1351  0.1356  0.1385  0.1386  0.1646  0.2931
 1982 100    45   0.0260  0.0250  0.0250  0.0250  0.0250  0.0280  0.0280  0.0290  0.0700  0.0960  0.0860  0.0860  0.0860  0.0860  0.0900  0.0900  0.1300  0.2580  0.2300  0.2300  0.2300  0.2300  0.2300  0.2300  0.2300  0.2300  0.3600  1.3000  1.3000  1.4000  1.4000  1.4000  1.4500  1.4500  1.4500  1.2000  0.1408  0.1127  0.1140  0.1215  0.1264  0.1200  0.1265  0.1648  0.2934
 1982 101    46   0.0260  0.0250  0.0250  0.0250  0.0250  0.0280  0.0280  0.0290  0.0700  0.0960  0.0860  0.0860  0.0860  0.0860  0.0900  0.0900  0.1300  0.2580  0.2300  0.2300  0.2300  0.2300  0.2300  0.2300  0.2300  0.2300  0.3600  1.3000  1.3000  1.4000  1.4000  1.4000  1.4500  1.4500  1.4500  1.2000  0.1287  0.1271  0.1306  0.1334  0.1345  0.1354  0.1321  0.1640  0.2923
 1982 102    47   0.0260  0.0250  0.0250  0.0250  0.0250  0.0280  0.0280  0.0290  0.0700  0.0960  0.0860  0.0860  0.0860  0.0860  0.0900  0.0900  0.1300  0.2580  0.2300  0.2300  0.2300  0.2300  0.2300  0.2300  0.2300  0.2300  0.3600  1.3000  1.3000  1.4000  1.4000  1.4000  1.4500  1.4500  1.4500  1.2000  0.0819  0.0896  0.0954  0.0991  0.1010  0.1047  0.1038  0.1408  0.2682
 1982 103    48   0.0260  0.0250  0.0250  0.0250  0.0250  0.0280  0.0280  0.0290  0.0700  0.0960  0.0860  0.0860  0.0860  0.0860  0.0900  0.0900  0.1300  0.2580  0.2300  0.2300  0.2300  0.2300  0.2300  0.2300  0.2300  0.2300  0.3600  1.3000  1.3000  1.4000  1.4000  1.4000  1.4500  1.4500  1.4500  1.2000  0.0607  0.0774  0.0836  0.0874  0.0894  0.0941  0.0940  0.1328  0.2599
 1982 104    49   0.0260  0.0250  0.0250  0.0250  0.0250  0.0280  0.0280  0.0290  0.0700  0.0960  0.0860  0.0860  0.0860  0.0860  0.0900  0.0900  0.1300  0.2580  0.2300  0.2300  0.2300  0.2300  0.2300  0.2300  0.2300  0.2300  0.3600  1.3000  1.3000  1.4000  1.4000  1.4000  1.4500  1.4500  1.4500  1.2000  0.0476  0.0659  0.0770  0.0836  0.0853  0.0904  0.0906  0.1318  0.2583
 1982 105    50   0.0260  0.0250  0.0250  0.0250  0.0250  0.0280  0.0280  0.0290  0.0700  0.0960  0.0860  0.0860  0.0860  0.0860  0.0900  0.0900  0.1300  0.2580  0.2300  0.2300  0.2300  0.2300  0.2300  0.2300  0.2300  0.2300  0.3600  1.3000  1.3000  1.4000  1.4000  1.4000  1.4500  1.4500  1.4500  1.2000  0.0422  0.0574  0.0708  0.0802  0.0837  0.0897  0.0900  0.1311  0.2570
 1982 106    51   0.0260  0.0250  0.0250  0.0250  0.0250  0.0280  0.0280  0.0290  0.0700  0.0960  0.0860  0.0860  0.0860  0.0860  0.0900  0.0900  0.1300  0.2580  0.2300  0.2300  0.2300  0.2300  0.2300  0.2300  0.2300  0.2300  0.3600  1.3000  1.3000  1.4000  1.4000  1.4000  1.4500  1.4500  1.4500  1.2000  0.0379  0.0528  0.0621  0.0758  0.0823  0.0897  0.0900  0.1311  0.2570
 1982 107    52   0.0260  0.0250  0.0250  0.0250  0.0250  0.0280  0.0280  0.0290  0.0700  0.0960  0.0860  0.0860  0.0860  0.0860  0.0900  0.0900  0.1300  0.2580  0.2300  0.2300  0.2300  0.2300  0.2300  0.2300  0.2300  0.2300  0.3600  1.3000  1.3000  1.4000  1.4000  1.4000  1.4500  1.4500  1.4500  1.2000  0.0435  0.0481  0.0555  0.0683  0.0800  0.0897  0.0900  0.1311  0.2570
 1982 108    53   0.0260  0.0250  0.0250  0.0250  0.0250  0.0280  0.0280  0.0290  0.0700  0.0960  0.0860  0.0860  0.0860  0.0860  0.0900  0.0900  0.1300  0.2580  0.2300  0.2300  0.2300  0.2300  0.2300  0.2300  0.2300  0.2300  0.3600  1.3000  1.3000  1.4000  1.4000  1.4000  1.4500  1.4500  1.4500  1.2000  0.0462  0.0444  0.0513  0.0603  0.0768  0.0897  0.0900  0.1311  0.2570
 1982 109    54   0.0260  0.0250  0.0250  0.0250  0.0250  0.0280  0.0280  0.0290  0.0700  0.0960  0.0860  0.0860  0.0860  0.0860  0.0900  0.0900  0.1300  0.2580  0.2300  0.2300  0.2300  0.2300  0.2300  0.2300  0.2300  0.2300  0.3600  1.3000  1.3000  1.4000  1.4000  1.4000  1.4500  1.4500  1.4500  1.2000  0.0338  0.0403  0.0468  0.0547  0.0714  0.0897  0.0900  0.1311  0.2570
 1982 110    55   0.0260  0.0250  0.0250  0.0250  0.0250  0.0280  0.0280  0.0290  0.0700  0.0960  0.0860  0.0860  0.0860  0.0860  0.0900  0.0900  0.1300  0.2580  0.2300  0.2300  0.2300  0.2300  0.2300  0.2300  0.2300  0.2300  0.3600  1.3000  1.3000  1.4000  1.4000  1.4000  1.4500  1.4500  1.4500  1.2000  0.0294  0.0376  0.0441  0.0517  0.0655  0.0897  0.0900  0.1311  0.2570
 1982 111    56   0.0260  0.0250  0.0250  0.0250  0.0250  0.0280  0.0280  0.0290  0.0700  0.0960  0.0860  0.0860  0.0860  0.0860  0.0900  0.0900  0.1300  0.2580  0.2300  0.2300  0.2300  0.2300  0.2300  0.2300  0.2300  0.2300  0.3600  1.3000  1.3000  1.4000  1.4000  1.4000  1.4500  1.4500  1.4500  1.2000  0.0262  0.0355  0.0420  0.0495  0.0622  0.0897  0.0900  0.1310  0.2570
 1982 112    57   0.0260  0.0250  0.0250  0.0250  0.0250  0.0280  0.0280  0.0290  0.0700  0.0960  0.0860  0.0860  0.0860  0.0860  0.0900  0.0900  0.1300  0.2580  0.2300  0.2300  0.2300  0.2300  0.2300  0.2300  0.2300  0.2300  0.3600  1.3000  1.3000  1.4000  1.4000  1.4000  1.4500  1.4500  1.4500  1.2000  0.0247  0.0337  0.0402  0.0476  0.0595  0.0896  0.0900  0.1310  0.2570
 1982 113    58   0.0260  0.0250  0.0250  0.0250  0.0250  0.0280  0.0280  0.0290  0.0700  0.0960  0.0860  0.0860  0.0860  0.0860  0.0900  0.0900  0.1300  0.2580  0.2300  0.2300  0.2300  0.2300  0.2300  0.2300  0.2300  0.2300  0.3600  1.3000  1.3000  1.4000  1.4000  1.4000  1.4500  1.4500  1.4500  1.2000  0.0233  0.0322  0.0386  0.0460  0.0571  0.0895  0.0900  0.1310  0.2570
 1982 114    59   0.0260  0.0250  0.0250  0.0250  0.0250  0.0280  0.0280  0.0290  0.0700  0.0960  0.0860  0.0860  0.0860  0.0860  0.0900  0.0900  0.1300  0.2580  0.2300  0.2300  0.2300  0.2300  0.2300  0.2300  0.2300  0.2300  0.3600  1.3000  1.3000  1.4000  1.4000  1.4000  1.4500  1.4500  1.4500  1.2000  0.0220  0.0309  0.0372  0.0447  0.0552  0.0895  0.0900  0.1310  0.2570
 1982 115    60   0.0260  0.0250  0.0250  0.0250  0.0250  0.0280  0.0280  0.0290  0.0700  0.0960  0.0860  0.0860  0.0860  0.0860  0.0900  0.0900  0.1300  0.2580  0.2300  0.2300  0.2300  0.2300  0.2300  0.2300  0.2300  0.2300  0.3600  1.3000  1.3000  1.4000  1.4000  1.4000  1.4500  1.4500  1.4500  1.2000  0.0966  0.0333  0.0361  0.0435  0.0537  0.0894  0.0900  0.1310  0.2570
 1982 116    61   0.0260  0.0250  0.0250  0.0250  0.0250  0.0280  0.0280  0.0290  0.0700  0.0960  0.0860  0.0860  0.0860  0.0860  0.0900  0.0900  0.1300  0.2580  0.2300  0.2300  0.2300  0.2300  0.2300  0.2300  0.2300  0.2300  0.3600  1.3000  1.3000  1.4000  1.4000  1.4000  1.4500  1.4500  1.4500  1.2000  0.1167  0.1351  0.0913  0.0541  0.0532  0.0891  0.0898  0.1308  0.2565
 1982 117    62   0.0260  0.0250  0.0250  0.0250  0.0250  0.0280  0.0280  0.0290  0.0700  0.0960  0.0860  0.0860  0.0860  0.0860  0.0900  0.0900  0.1300  0.2580  0.2300  0.2300  0.2300  0.2300  0.2300  0.2300  0.2300  0.2300  0.3600  1.3000  1.3000  1.4000  1.4000  1.4000  1.4500  1.4500  1.4500  1.2000  0.0777  0.0891  0.0872  0.0723  0.0526  0.0886  0.0894  0.1303  0.2557
 1982 118    63   0.0260  0.0250  0.0250  0.0250  0.0250  0.0280  0.0280  0.0290  0.0700  0.0960  0.0860  0.0860  0.0860  0.0860  0.0900  0.0900  0.1300  0.2580  0.2300  0.2300  0.2300  0.2300  0.2300  0.2300  0.2300  0.2300  0.3600  1.3000  1.3000  1.4000  1.4000  1.4000  1.4500  1.4500  1.4500  1.2000  0.0531  0.0722  0.0787  0.0696  0.0520  0.0881  0.0890  0.1298  0.2548
 1982 119    64   0.0260  0.0250  0.0250  0.0250  0.0250  0.0280  0.0280  0.0290  0.0700  0.0960  0.0860  0.0860  0.0860  0.0860  0.0900  0.0900  0.1300  0.2580  0.2300  0.2300  0.2300  0.2300  0.2300  0.2300  0.2300  0.2300  0.3600  1.3000  1.3000  1.4000  1.4000  1.4000  1.4500  1.4500  1.4500  1.2000  0.0461  0.0591  0.0713  0.0662  0.0518  0.0881  0.0890  0.1298  0.2548
 1982 120    65   0.0260  0.0250  0.0250  0.0250  0.0250  0.0280  0.0280  0.0290  0.0700  0.0960  0.0860  0.0860  0.0860  0.0860  0.0900  0.0900  0.1300  0.2580  0.2300  0.2300  0.2300  0.2300  0.2300  0.2300  0.2300  0.2300  0.3600  1.3000  1.3000  1.4000  1.4000  1.4000  1.4500  1.4500  1.4500  1.2000  0.0405  0.0509  0.0584  0.0623  0.0515  0.0880  0.0890  0.1298  0.2548
 1982 121    66   0.0260  0.0250  0.0250  0.0250  0.0250  0.0280  0.0280  0.0290  0.0700  0.0960  0.0860  0.0860  0.0860  0.0860  0.0900  0.0900  0.1300  0.2580  0.2300  0.2300  0.2300  0.2300  0.2300  0.2300  0.2300  0.2300  0.3600  1.3000  1.3000  1.4000  1.4000  1.4000  1.4500  1.4500  1.4500  1.2000  0.0349  0.0438  0.0497  0.0566  0.0507  0.0879  0.0890  0.1298  0.2548
 1982 122    67   0.0260  0.0250  0.0250  0.0250  0.0250  0.0280  0.0280  0.0290  0.0700  0.0960  0.0860  0.0860  0.0860  0.0860  0.0900  0.0900  0.1300  0.2580  0.2300  0.2300  0.2300  0.2300  0.2300  0.2300  0.2300  0.2300  0.3600  1.3000  1.3000  1.4000  1.4000  1.4000  1.4500  1.4500  1.4500  1.2000  0.0301  0.0383  0.0441  0.0515  0.0494  0.0877  0.0890  0.1297  0.2548
 1982 123    68   0.0260  0.0250  0.0250  0.0250  0.0250  0.0280  0.0280  0.0290  0.0700  0.0960  0.0860  0.0860  0.0860  0.0860  0.0900  0.0900  0.1300  0.2580  0.2300  0.2300  0.2300  0.2300  0.2300  0.2300  0.2300  0.2300  0.3600  1.3000  1.3000  1.4000  1.4000  1.4000  1.4500  1.4500  1.4500  1.2000  0.0268  0.0350  0.0408  0.0483  0.0481  0.0874  0.0890  0.1297  0.2548
 1982 124    69   0.0260  0.0250  0.0250  0.0250  0.0250  0.0280  0.0280  0.0290  0.0700  0.0960  0.0860  0.0860  0.0860  0.0860  0.0900  0.0900  0.1300  0.2580  0.2300  0.2300  0.2300  0.2300  0.2300  0.2300  0.2300  0.2300  0.3600  1.3000  1.3000  1.4000  1.4000  1.4000  1.4500  1.4500  1.4500  1.2000  0.0252  0.0326  0.0384  0.0460  0.0469  0.0869  0.0890  0.1297  0.2548
 1982 125    70   0.0260  0.0250  0.0250  0.0250  0.0250  0.0280  0.0280  0.0290  0.0700  0.0960  0.0860  0.0860  0.0860  0.0860  0.0900  0.0900  0.1300  0.2580  0.2300  0.2300  0.2300  0.2300  0.2300  0.2300  0.2300  0.2300  0.3600  1.3000  1.3000  1.4000  1.4000  1.4000  1.4500  1.4500  1.4500  1.2000  0.0238  0.0307  0.0364  0.0441  0.0457  0.0864  0.0890  0.1297  0.2548
 1982 126    71   0.0260  0.0250  0.0250  0.0250  0.0250  0.0280  0.0280  0.0290  0.0700  0.0960  0.0860  0.0860  0.0860  0.0860  0.0900  0.0900  0.1300  0.2580  0.2300  0.2300  0.2300  0.2300  0.2300  0.2300  0.2300  0.2300  0.3600  1.3000  1.3000  1.4000  1.4000  1.4000  1.4500  1.4500  1.4500  1.2000  0.0225  0.0291  0.0348  0.0425  0.0446  0.0857  0.0890  0.1297  0.2548
 1982 127    72   0.0260  0.0250  0.0250  0.0250  0.0250  0.0280  0.0280  0.0290  0.0700  0.0960  0.0860  0.0860  0.0860  0.0860  0.0900  0.0900  0.1300  0.2580  0.2300  0.2300  0.2300  0.2300  0.2300  0.2300  0.2300  0.2300  0.3600  1.3000  1.3000  1.4000  1.4000  1.4000  1.4500  1.4500  1.4500  1.2000  0.0213  0.0277  0.0334  0.0411  0.0435  0.0850  0.0890  0.1297  0.2548
 1982 128    73   0.0260  0.0250  0.0250  0.0250  0.0250  0.0280  0.0280  0.0290  0.0700  0.0960  0.0860  0.0860  0.0860  0.0860  0.0900  0.0900  0.1300  0.2580  0.2300  0.2300  0.2300  0.2300  0.2300  0.2300  0.2300  0.2300  0.3600  1.3000  1.3000  1.4000  1.4000  1.4000  1.4500  1.4500  1.4500  1.2000  0.0394  0.0264  0.0321  0.0399  0.0425  0.0842  0.0890  0.1297  0.2548
 1982 129    74   0.0260  0.0250  0.0250  0.0250  0.0250  0.0280  0.0280  0.0290  0.0700  0.0960  0.0860  0.0860  0.0860  0.0860  0.0900  0.0900  0.1300  0.2580  0.2300  0.2300  0.2300  0.2300  0.2300  0.2300  0.2300  0.2300  0.3600  1.3000  1.3000  1.4000  1.4000  1.4000  1.4500  1.4500  1.4500  1.2000  0.0326  0.0253  0.0310  0.0388  0.0416  0.0834  0.0890  0.1297  0.2548
 1982 130    75   0.0260  0.0250  0.0250  0.0250  0.0250  0.0280  0.0280  0.0290  0.0700  0.0960  0.0860  0.0860  0.0860  0.0860  0.0900  0.0900  0.1300  0.2580  0.2300  0.2300  0.2300  0.2300  0.2300  0.2300  0.2300  0.2300  0.3600  1.3000  1.3000  1.4000  1.4000  1.4000  1.4500  1.4500  1.4500  1.2000  0.0286  0.0250  0.0300  0.0379  0.0408  0.0825  0.0889  0.1297  0.2548
 1982 131    76   0.0260  0.0250  0.0250  0.0250  0.0250  0.0280  0.0280  0.0290  0.0700  0.0960  0.0860  0.0860  0.0860  0.0860  0.0900  0.0900  0.1300  0.2580  0.2300  0.2300  0.2300  0.2300  0.2300  0.2300  0.2300  0.2300  0.3600  1.3000  1.3000  1.4000  1.4000  1.4000  1.4500  1.4500  1.4500  1.2000  0.0260  0.0249  0.0290  0.0369  0.0400  0.0815  0.0889  0.1297  0.2548
 1982 132    77   0.0260  0.0250  0.0250  0.0250  0.0250  0.0280  0.0280  0.0290  0.0700  0.0960  0.0860  0.0860  0.0860  0.0860  0.0900  0.0900  0.1300  0.2580  0.2300  0.2300  0.2300  0.2300  0.2300  0.2300  0.2300  0.2300  0.3600  1.3000  1.3000  1.4000  1.4000  1.4000  1.4500  1.4500  1.4500  1.2000  0.0245  0.0248  0.0282  0.0361  0.0392  0.0805  0.0889  0.1297  0.2548
 1982 133    78   0.0260  0.0250  0.0250  0.0250  0.0250  0.0280  0.0280  0.0290  0.0700  0.0960  0.0860  0.0860  0.0860  0.0860  0.0900  0.0900  0.1300  0.2580  0.2300  0.2300  0.2300  0.2300  0.2300  0.2300  0.2300  0.2300  0.3600  1.3000  1.3000  1.4000  1.4000  1.4000  1.4500  1.4500  1.4500  1.2000  0.0231  0.0247  0.0273  0.0353  0.0384  0.0793  0.0889  0.1297  0.2548
 1982 134    79   0.0260  0.0250  0.0250  0.0250  0.0250  0.0280  0.0280  0.0290  0.0700  0.0960  0.0860  0.0860  0.0860  0.0860  0.0900  0.0900  0.1300  0.2580  0.2300  0.2300  0.2300  0.2300  0.2300  0.2300  0.2300  0.2300  0.3600  1.3000  1.3000  1.4000  1.4000  1.4000  1.4500  1.4500  1.4500  1.2000  0.0219  0.0247  0.0266  0.0346  0.0378  0.0782  0.0889  0.1297  0.2548
 1982 135    80   0.0260  0.0250  0.0250  0.0250  0.0250  0.0280  0.0280  0.0290  0.0700  0.0960  0.0860  0.0860  0.0860  0.0860  0.0900  0.0900  0.1300  0.2580  0.2300  0.2300  0.2300  0.2300  0.2300  0.2300  0.2300  0.2300  0.3600  1.3000  1.3000  1.4000  1.4000  1.4000  1.4500  1.4500  1.4500  1.2000  0.0207  0.0246  0.0259  0.0339  0.0371  0.0770  0.0889  0.1297  0.2547
 1982 136    81   0.0260  0.0250  0.0250  0.0250  0.0250  0.0280  0.0280  0.0290  0.0700  0.0960  0.0860  0.0860  0.0860  0.0860  0.0900  0.0900  0.1300  0.2580  0.2300  0.2300  0.2300  0.2300  0.2300  0.2300  0.2300  0.2300  0.3600  1.3000  1.3000  1.4000  1.4000  1.4000  1.4500  1.4500  1.4500  1.2000  0.0197  0.0245  0.0253  0.0333  0.0365  0.0759  0.0889  0.1297  0.2547
 1982 137    82   0.0260  0.0250  0.0250  0.0250  0.0250  0.0280  0.0280  0.0290  0.0700  0.0960  0.0860  0.0860  0.0860  0.0860  0.0900  0.0900  0.1300  0.2580  0.2300  0.2300  0.2300  0.2300  0.2300  0.2300  0.2300  0.2300  0.3600  1.3000  1.3000  1.4000  1.4000  1.4000  1.4500  1.4500  1.4500  1.2000  0.0187  0.0244  0.0250  0.0327  0.0360  0.0748  0.0889  0.1297  0.2547
 1982 138    83   0.0260  0.0250  0.0250  0.0250  0.0250  0.0280  0.0280  0.0290  0.0700  0.0960  0.0860  0.0860  0.0860  0.0860  0.0900  0.0900  0.1300  0.2580  0.2300  0.2300  0.2300  0.2300  0.2300  0.2300  0.2300  0.2300  0.3600  1.3000  1.3000  1.4000  1.4000  1.4000  1.4500  1.4500  1.4500  1.2000  0.0178  0.0243  0.0250  0.0322  0.0354  0.0738  0.0889  0.1297  0.2547
 1982 139    84   0.0260  0.0250  0.0250  0.0250  0.0250  0.0280  0.0280  0.0290  0.0700  0.0960  0.0860  0.0860  0.0860  0.0860  0.0900  0.0900  0.1300  0.2580  0.2300  0.2300  0.2300  0.2300  0.2300  0.2300  0.2300  0.2300  0.3600  1.3000  1.3000  1.4000  1.4000  1.4000  1.4500  1.4500  1.4500  1.2000  0.0170  0.0242  0.0250  0.0316  0.0349  0.0729  0.0889  0.1297  0.2547
 1982 140    85   0.0260  0.0250  0.0250  0.0250  0.0250  0.0280  0.0280  0.0290  0.0700  0.0960  0.0860  0.0860  0.0860  0.0860  0.0900  0.0900  0.1300  0.2580  0.2300  0.2300  0.2300  0.2300  0.2300  0.2300  0.2300  0.2300  0.3600  1.3000  1.3000  1.4000  1.4000  1.4000  1.4500  1.4500  1.4500  1.2000  0.0162  0.0242  0.0249  0.0312  0.0345  0.0721  0.0889  0.1297  0.2547
 1982 141    86   0.0260  0.0250  0.0250  0.0250  0.0250  0.0280  0.0280  0.0290  0.0700  0.0960  0.0860  0.0860  0.0860  0.0860  0.0900  0.0900  0.1300  0.2580  0.2300  0.2300  0.2300  0.2300  0.2300  0.2300  0.2300  0.2300  0.3600  1.3000  1.3000  1.4000  1.4000  1.4000  1.4500  1.4500  1.4500  1.2000  0.0155  0.0241  0.0249  0.0307  0.0340  0.0713  0.0889  0.1297  0.2547
 1982 142    87   0.0260  0.0250  0.0250  0.0250  0.0250  0.0280  0.0280  0.0290  0.0700  0.0960  0.0860  0.0860  0.0860  0.0860  0.0900  0.0900  0.1300  0.2580  0.2300  0.2300  0.2300  0.2300  0.2300  0.2300  0.2300  0.2300  0.3600  1.3000  1.3000  1.4000  1.4000  1.4000  1.4500  1.4500  1.4500  1.2000  0.0532  0.0240  0.0249  0.0303  0.0336  0.0707  0.0889  0.1297  0.2547
 1982 143    88   0.0260  0.0250  0.0250  0.0250  0.0250  0.0280  0.0280  0.0290  0.0700  0.0960  0.0860  0.0860  0.0860  0.0860  0.0900  0.0900  0.1300  0.2580  0.2300  0.2300  0.2300  0.2300  0.2300  0.2300  0.2300  0.2300  0.3600  1.3000  1.3000  1.4000  1.4000  1.4000  1.4500  1.4500  1.4500  1.2000  0.1246  0.1342  0.1078  0.0717  0.0329  0.0696  0.0884  0.1291  0.2537
 1982 144    89   0.0260  0.0250  0.0250  0.0250  0.0250  0.0280  0.0280  0.0290  0.0700  0.0960  0.0860  0.0860  0.0860  0.0860  0.0900  0.0900  0.1300  0.2580  0.2300  0.2300  0.2300  0.2300  0.2300  0.2300  0.2300  0.2300  0.3600  1.3000  1.3000  1.4000  1.4000  1.4000  1.4500  1.4500  1.4500  1.2000  0.1143  0.0995  0.0967  0.0894  0.0466  0.0689  0.0878  0.1283  0.2524
 1982 145    90   0.0260  0.0250  0.0250  0.0250  0.0250  0.0280  0.0280  0.0290  0.0700  0.0960  0.0860  0.0860  0.0860  0.0860  0.0900  0.0900  0.1300  0.2580  0.2300  0.2300  0.2300  0.2300  0.2300  0.2300  0.2300  0.2300  0.3600  1.3000  1.3000  1.4000  1.4000  1.4000  1.4500  1.4500  1.4500  1.2000  0.1029  0.0849  0.0868  0.0889  0.0587  0.0683  0.0872  0.1275  0.2510
 1982 146    91   0.0260  0.0250  0.0250  0.0250  0.0250  0.0280  0.0280  0.0290  0.0700  0.0960  0.0860  0.0860  0.0860  0.0860  0.0900  0.0900  0.1300  0.2580  0.2300  0.2300  0.2300  0.2300  0.2300  0.2300  0.2300  0.2300  0.3600  1.3000  1.3000  1.4000  1.4000  1.4000  1.4500  1.4500  1.4500  1.2000  0.0925  0.0793  0.0816  0.0850  0.0613  0.0678  0.0867  0.1269  0.2500
 1982 147    92   0.0260  0.0250  0.0250  0.0250  0.0250  0.0280  0.0280  0.0290  0.0700  0.0960  0.0860  0.0860  0.0860  0.0860  0.0900  0.0900  0.1300  0.2580  0.2300  0.2300  0.2300  0.2300  0.2300  0.2300  0.2300  0.2300  0.3600  1.3000  1.3000  1.4000  1.4000  1.4000  1.4500  1.4500  1.4500  1.2000  0.0777  0.0712  0.0763  0.0827  0.0607  0.0678  0.0867  0.1269  0.2500
 1982 148    93   0.0260  0.0250  0.0250  0.0250  0.0250  0.0280  0.0280  0.0290  0.0700  0.0960  0.0860  0.0860  0.0860  0.0860  0.0900  0.0900  0.1300  0.2580  0.2300  0.2300  0.2300  0.2300  0.2300  0.2300  0.2300  0.2300  0.3600  1.3000  1.3000  1.4000  1.4000  1.4000  1.4500  1.4500  1.4500  1.2000  0.1026  0.0748  0.0700  0.0786  0.0592  0.0670  0.0859  0.1259  0.2484
 1982 149    94   0.0260  0.0250  0.0250  0.0250  0.0250  0.0280  0.0280  0.0290  0.0700  0.0960  0.0860  0.0860  0.0860  0.0860  0.0900  0.0900  0.1300  0.2580  0.2300  0.2300  0.2300  0.2300  0.2300  0.2300  0.2300  0.2300  0.3600  1.3000  1.3000  1.4000  1.4000  1.4000  1.4500  1.4500  1.4500  1.2000  0.0788  0.0653  0.0623  0.0748  0.0579  0.0663  0.0853  0.1251  0.2469
 1982 150    95   0.0260  0.0250  0.0250  0.0250  0.0250  0.0280  0.0280  0.0290  0.0700  0.0960  0.0860  0.0860  0.0860  0.0860  0.0900  0.0900  0.1300  0.2580  0.2300  0.2300  0.2300  0.2300  0.2300  0.2300  0.2300  0.2300  0.3600  1.3000  1.3000  1.4000  1.4000  1.4000  1.4500  1.4500  1.4500  1.2000  0.1272  0.0843  0.0633  0.0733  0.0575  0.0661  0.0850  0.1248  0.2464
 1982 151    96   0.0260  0.0250  0.0250  0.0250  0.0250  0.0280  0.0280  0.0290  0.0700  0.0960  0.0860  0.0860  0.0860  0.0860  0.0900  0.0900  0.1300  0.2580  0.2300  0.2300  0.2300  0.2300  0.2300  0.2300  0.2300  0.2300  0.3600  1.3000  1.3000  1.4000  1.4000  1.4000  1.4500  1.4500  1.4500  1.2000  0.1380  0.1283  0.1153  0.1005  0.0881  0.0658  0.0847  0.1243  0.2457
 1982 152    97   0.0260  0.0250  0.0250  0.0250  0.0250  0.0280  0.0280  0.0290  0.0700  0.0960  0.0860  0.0860  0.0860  0.0860  0.0900  0.0900  0.1300  0.2580  0.2300  0.2300  0.2300  0.2300  0.2300  0.2300  0.2300  0.2300  0.3600  1.3000  1.3000  1.4000  1.4000  1.4000  1.4500  1.4500  1.4500  1.2000  0.1313  0.1242  0.1201  0.1149  0.1053  0.0855  0.0842  0.1237  0.2446
 1982 153    98   0.0260  0.0250  0.0250  0.0250  0.0250  0.0280  0.0280  0.0290  0.0700  0.0960  0.0860  0.0860  0.0860  0.0860  0.0900  0.0900  0.1300  0.2580  0.2300  0.2300  0.2300  0.2300  0.2300  0.2300  0.2300  0.2300  0.3600  1.3000  1.3000  1.4000  1.4000  1.4000  1.4500  1.4500  1.4500  1.2000  0.0855  0.0851  0.0878  0.0915  0.0894  0.0890  0.0892  0.1291  0.2564
 1982 154    99   0.0260  0.0250  0.0250  0.0250  0.0250  0.0280  0.0280  0.0290  0.0700  0.0960  0.0860  0.0860  0.0860  0.0860  0.0900  0.0900  0.1300  0.2580  0.2300  0.2300  0.2300  0.2300  0.2300  0.2300  0.2300  0.2300  0.3600  1.3000  1.3000  1.4000  1.4000  1.4000  1.4500  1.4500  1.4500  1.2000  0.0930  0.0797  0.0812  0.0860  0.0870  0.0912  0.0887  0.1284  0.2553
 1982 155   100   0.0260  0.0250  0.0250  0.0250  0.0250  0.0280  0.0280  0.0290  0.0700  0.0960  0.0860  0.0860  0.0860  0.0860  0.0900  0.0900  0.1300  0.2580  0.2300  0.2300  0.2300  0.2300  0.2300  0.2300  0.2300  0.2300  0.3600  1.3000  1.3000  1.4000  1.4000  1.4000  1.4500  1.4500  1.4500  1.2000  0.0745  0.0684  0.0725  0.0820  0.0840  0.0901  0.0880  0.1275  0.2538
 1982 156   101   0.0260  0.0250  0.0250  0.0250  0.0250  0.0280  0.0280  0.0290  0.0700  0.0960  0.0860  0.0860  0.0860  0.0860  0.0900  0.0900  0.1300  0.2580  0.2300  0.2300  0.2300  0.2300  0.2300  0.2300  0.2300  0.2300  0.3600  1.3000  1.3000  1.4000  1.4000  1.4000  1.4500  1.4500  1.4500  1.2000  0.0570  0.0569  0.0633  0.0777  0.0808  0.0890  0.0872  0.1265  0.2521
 1982 157   102   0.0260  0.0250  0.0250  0.0250  0.0250  0.0280  0.0280  0.0290  0.0700  0.0960  0.0860  0.0860  0.0860  0.0860  0.0900  0.0900  0.1300  0.2580  0.2300  0.2300  0.2300  0.2300  0.2300  0.2300  0.2300  0.2300  0.3600  1.3000  1.3000  1.4000  1.4000  1.4000  1.4500  1.4500  1.4500  1.2000  0.0488  0.0520  0.0546  0.0721  0.0769  0.0889  0.0872  0.1265  0.2521
 1982 158   103   0.0260  0.0250  0.0250  0.0250  0.0250  0.0280  0.0280  0.0290  0.0700  0.0960  0.0860  0.0860  0.0860  0.0860  0.0900  0.0900  0.1300  0.2580  0.2300  0.2300  0.2300  0.2300  0.2300  0.2300  0.2300  0.2300  0.3600  1.3000  1.3000  1.4000  1.4000  1.4000  1.4500  1.4500  1.4500  1.2000  0.0430  0.0479  0.0497  0.0638  0.0710  0.0886  0.0872  0.1265  0.2521
 1982 159   104   0.0260  0.0250  0.0250  0.0250  0.0250  0.0280  0.0280  0.0290  0.0700  0.0960  0.0860  0.0860  0.0860  0.0860  0.0900  0.0900  0.1300  0.2580  0.2300  0.2300  0.2300  0.2300  0.2300  0.2300  0.2300  0.2300  0.3600  1.3000  1.3000  1.4000  1.4000  1.4000  1.4500  1.4500  1.4500  1.2000  0.0385  0.0444  0.0456  0.0573  0.0627  0.0883  0.0872  0.1265  0.2521
 1982 160   105   0.0260  0.0250  0.0250  0.0250  0.0250  0.0280  0.0280  0.0290  0.0700  0.0960  0.0860  0.0860  0.0860  0.0860  0.0900  0.0900  0.1300  0.2580  0.2300  0.2300  0.2300  0.2300  0.2300  0.2300  0.2300  0.2300  0.3600  1.3000  1.3000  1.4000  1.4000  1.4000  1.4500  1.4500  1.4500  1.2000  0.0342  0.0404  0.0412  0.0518  0.0559  0.0877  0.0872  0.1265  0.2521
 1982 161   106   0.0260  0.0250  0.0250  0.0250  0.0250  0.0280  0.0280  0.0290  0.0700  0.0960  0.0860  0.0860  0.0860  0.0860  0.0900  0.0900  0.1300  0.2580  0.2300  0.2300  0.2300  0.2300  0.2300  0.2300  0.2300  0.2300  0.3600  1.3000  1.3000  1.4000  1.4000  1.4000  1.4500  1.4500  1.4500  1.2000  0.0301  0.0359  0.0364  0.0462  0.0499  0.0865  0.0872  0.1265  0.2520
 1982 162   107   0.0260  0.0250  0.0250  0.0250  0.0250  0.0280  0.0280  0.0290  0.0700  0.0960  0.0860  0.0860  0.0860  0.0860  0.0900  0.0900  0.1300  0.2580  0.2300  0.2300  0.2300  0.2300  0.2300  0.2300  0.2300  0.2300  0.3600  1.3000  1.3000  1.4000  1.4000  1.4000  1.4500  1.4500  1.4500  1.2000  0.0268  0.0325  0.0330  0.0424  0.0460  0.0850  0.0872  0.1265  0.2520
 1982 163   108   0.0260  0.0250  0.0250  0.0250  0.0250  0.0280  0.0280  0.0290  0.0700  0.0960  0.0860  0.0860  0.0860  0.0860  0.0900  0.0900  0.1300  0.2580  0.2300  0.2300  0.2300  0.2300  0.2300  0.2300  0.2300  0.2300  0.3600  1.3000  1.3000  1.4000  1.4000  1.4000  1.4500  1.4500  1.4500  1.2000  0.1439  0.1338  0.1340  0.1115  0.0876  0.0874  0.0872  0.1265  0.2520
 1982 164   109   0.0260  0.0250  0.0250  0.0250  0.0250  0.0280  0.0280  0.0290  0.0700  0.0960  0.0860  0.0860  0.0860  0.0860  0.0900  0.0900  0.1300  0.2580  0.2300  0.2300  0.2300  0.2300  0.2300  0.2300  0.2300  0.2300  0.3600  1.3000  1.3000  1.4000  1.4000  1.4000  1.4500  1.4500  1.4500  1.2000  0.0943  0.0919  0.0937  0.0904  0.0844  0.0891  0.0894  0.1292  0.2566
 1982 165   110   0.0260  0.0250  0.0250  0.0250  0.0250  0.0280  0.0280  0.0290  0.0700  0.0960  0.0860  0.0860  0.0860  0.0860  0.0900  0.0900  0.1300  0.2580  0.2300  0.2300  0.2300  0.2300  0.2300  0.2300  0.2300  0.2300  0.3600  1.3000  1.3000  1.4000  1.4000  1.4000  1.4500  1.4500  1.4500  1.2000  0.0747  0.0761  0.0785  0.0823  0.0821  0.0889  0.0892  0.1290  0.2563
 1982 166   111   0.0260  0.0250  0.0250  0.0250  0.0250  0.0280  0.0280  0.0290  0.0700  0.0960  0.0860  0.0860  0.0860  0.0860  0.0900  0.0900  0.1300  0.2580  0.2300  0.2300  0.2300  0.2300  0.2300  0.2300  0.2300  0.2300  0.3600  1.3000  1.3000  1.4000  1.4000  1.4000  1.4500  1.4500  1.4500  1.2000  0.0621  0.0686  0.0713  0.0790  0.0796  0.0887  0.0892  0.1290  0.2563
 1982 167   112   0.0260  0.0250  0.0250  0.0250  0.0250  0.0280  0.0280  0.0290  0.0700  0.0960  0.0860  0.0860  0.0860  0.0860  0.0900  0.0900  0.1300  0.2580  0.2300  0.2300  0.2300  0.2300  0.2300  0.2300  0.2300  0.2300  0.3600  1.3000  1.3000  1.4000  1.4000  1.4000  1.4500  1.4500  1.4500  1.2000  0.0538  0.0601  0.0630  0.0750  0.0765  0.0885  0.0892  0.1290  0.2563
 1982 168   113   0.0260  0.0250  0.0250  0.0250  0.0250  0.0280  0.0280  0.0290  0.0700  0.0960  0.0860  0.0860  0.0860  0.0860  0.0900  0.0900  0.1300  0.2580  0.2300  0.2300  0.2300  0.2300  0.2300  0.2300  0.2300  0.2300  0.3600  1.3000  1.3000  1.4000  1.4000  1.4000  1.4500  1.4500  1.4500  1.2000  0.1421  0.0872  0.0650  0.0733  0.0751  0.0882  0.0890  0.1287  0.2558
 1982 169   114   0.0260  0.0250  0.0250  0.0250  0.0250  0.0280  0.0280  0.0290  0.0700  0.0960  0.0860  0.0860  0.0860  0.0860  0.0900  0.0900  0.1300  0.2580  0.2300  0.2300  0.2300  0.2300  0.2300  0.2300  0.2300  0.2300  0.3600  1.3000  1.3000  1.4000  1.4000  1.4000  1.4500  1.4500  1.4500  1.2000  0.1391  0.1298  0.1320  0.1334  0.1340  0.1198  0.1090  0.1417  0.2644
 1982 170   115   0.0260  0.0250  0.0250  0.0250  0.0250  0.0280  0.0280  0.0290  0.0700  0.0960  0.0860  0.0860  0.0860  0.0860  0.0900  0.0900  0.1300  0.2580  0.2300  0.2300  0.2300  0.2300  0.2300  0.2300  0.2300  0.2300  0.3600  1.3000  1.3000  1.4000  1.4000  1.4000  1.4500  1.4500  1.4500  1.2000  0.0912  0.0896  0.0923  0.0971  0.0984  0.0992  0.0959  0.1332  0.2587
 1982 171   116   0.0260  0.0250  0.0250  0.0250  0.0250  0.0280  0.0280  0.0290  0.0700  0.0960  0.0860  0.0860  0.0860  0.0860  0.0900  0.0900  0.1300  0.2580  0.2300  0.2300  0.2300  0.2300  0.2300  0.2300  0.2300  0.2300  0.3600  1.3000  1.3000  1.4000  1.4000  1.4000  1.4500  1.4500  1.4500  1.2000  0.0722  0.0756  0.0782  0.0841  0.0857  0.0919  0.0912  0.1301  0.2570
 1982 172   117   0.0260  0.0250  0.0250  0.0250  0.0250  0.0280  0.0280  0.0290  0.0700  0.0960  0.0860  0.0860  0.0860  0.0860  0.0900  0.0900  0.1300  0.2580  0.2300  0.2300  0.2300  0.2300  0.2300  0.2300  0.2300  0.2300  0.3600  1.3000  1.3000  1.4000  1.4000  1.4000  1.4500  1.4500  1.4500  1.2000  0.0979  0.0788  0.0707  0.0796  0.0819  0.0909  0.0905  0.1292  0.2555
 1982 173   118   0.0260  0.0250  0.0250  0.0250  0.0250  0.0280  0.0280  0.0290  0.0700  0.0960  0.0860  0.0860  0.0860  0.0860  0.0900  0.0900  0.1300  0.2580  0.2300  0.2300  0.2300  0.2300  0.2300  0.2300  0.2300  0.2300  0.3600  1.3000  1.3000  1.4000  1.4000  1.4000  1.4500  1.4500  1.4500  1.2000  0.0985  0.0799  0.0665  0.0756  0.0785  0.0899  0.0899  0.1285  0.2542
 1982 174   119   0.0260  0.0250  0.0250  0.0250  0.0250  0.0280  0.0280  0.0290  0.0700  0.0960  0.0860  0.0860  0.0860  0.0860  0.0900  0.0900  0.1300  0.2580  0.2300  0.2300  0.2300  0.2300  0.2300  0.2300  0.2300  0.2300  0.3600  1.3000  1.3000  1.4000  1.4000  1.4000  1.4500  1.4500  1.4500  1.2000  0.1419  0.1311  0.1187  0.1035  0.0943  0.0928  0.0918  0.1321  0.2536
 1982 175   120   0.0260  0.0250  0.0250  0.0250  0.0250  0.0280  0.0280  0.0290  0.0700  0.0960  0.0860  0.0860  0.0860  0.0860  0.0900  0.0900  0.1300  0.2580  0.2300  0.2300  0.2300  0.2300  0.2300  0.2300  0.2300  0.2300  0.3600  1.3000  1.3000  1.4000  1.4000  1.4000  1.4500  1.4500  1.4500  1.2000  0.1348  0.1136  0.1062  0.1055  0.1009  0.0961  0.0946  0.1334  0.2581
 1982 176   121   0.0260  0.0250  0.0250  0.0250  0.0250  0.0280  0.0280  0.0290  0.0700  0.0960  0.0860  0.0860  0.0860  0.0860  0.0900  0.0900  0.1300  0.2580  0.2300  0.2300  0.2300  0.2300  0.2300  0.2300  0.2300  0.2300  0.3600  1.3000  1.3000  1.4000  1.4000  1.4000  1.4500  1.4500  1.4500  1.2000  0.1316  0.1202  0.1041  0.1047  0.1023  0.0978  0.0967  0.1352  0.2606
 1982 177   122   0.0260  0.0250  0.0250  0.0250  0.0250  0.0280  0.0280  0.0290  0.0700  0.0960  0.0860  0.0860  0.0860  0.0860  0.0900  0.0900  0.1300  0.2580  0.2300  0.2300  0.2300  0.2300  0.2300  0.2300  0.2300  0.2300  0.3600  1.3000  1.3000  1.4000  1.4000  1.4000  1.4500  1.4500  1.4500  1.2000  0.1427  0.1315  0.1325  0.1272  0.1179  0.1033  0.1010  0.1388  0.2643
 1982 178   123   0.0260  0.0250  0.0250  0.0250  0.0250  0.0280  0.0280  0.0290  0.0700  0.0960  0.0860  0.0860  0.0860  0.0860  0.0900  0.0900  0.1300  0.2580  0.2300  0.2300  0.2300  0.2300  0.2300  0.2300  0.2300  0.2300  0.3600  1.3000  1.3000  1.4000  1.4000  1.4000  1.4500  1.4500  1.4500  1.2000  0.1102  0.0995  0.1038  0.1119  0.1124  0.1037  0.1028  0.1411  0.2665
 1982 179   124   0.0260  0.0250  0.0250  0.0250  0.0250  0.0280  0.0280  0.0290  0.0700  0.0960  0.0860  0.0860  0.0860  0.0860  0.0900  0.0900  0.1300  0.2580  0.2300  0.2300  0.2300  0.2300  0.2300  0.2300  0.2300  0.2300  0.3600  1.3000  1.3000  1.4000  1.4000  1.4000  1.4500  1.4500  1.4500  1.2000  0.0825  0.0803  0.0835  0.0893  0.0898  0.0933  0.0936  0.1329  0.2593
 1982 180   125   0.0260  0.0250  0.0250  0.0250  0.0250  0.0280  0.0280  0.0290  0.0700  0.0960  0.0860  0.0860  0.0860  0.0860  0.0900  0.0900  0.1300  0.2580  0.2300  0.2300  0.2300  0.2300  0.2300  0.2300  0.2300  0.2300  0.3600  1.3000  1.3000  1.4000  1.4000  1.4000  1.4500  1.4500  1.4500  1.2000  0.0661  0.0703  0.0751  0.0815  0.0819  0.0896  0.0903  0.1318  0.2576
 1982 181   126   0.0260  0.0250  0.0250  0.0250  0.0250  0.0280  0.0280  0.0290  0.0700  0.0960  0.0860  0.0860  0.0860  0.0860  0.0900  0.0900  0.1300  0.2580  0.2300  0.2300  0.2300  0.2300  0.2300  0.2300  0.2300  0.2300  0.3600  1.3000  1.3000  1.4000  1.4000  1.4000  1.4500  1.4500  1.4500  1.2000  0.0833  0.0660  0.0710  0.0788  0.0791  0.0892  0.0902  0.1318  0.2576
 1982 182   127   0.0260  0.0250  0.0250  0.0250  0.0250  0.0280  0.0280  0.0290  0.0700  0.0960  0.0860  0.0860  0.0860  0.0860  0.0900  0.0900  0.1300  0.2580  0.2300  0.2300  0.2300  0.2300  0.2300  0.2300  0.2300  0.2300  0.3600  1.3000  1.3000  1.4000  1.4000  1.4000  1.4500  1.4500  1.4500  1.2000  0.0710  0.0607  0.0649  0.0748  0.0750  0.0886  0.0899  0.1318  0.2576
 1982 183   128   0.0260  0.0250  0.0250  0.0250  0.0250  0.0280  0.0280  0.0290  0.0700  0.0960  0.0860  0.0860  0.0860  0.0860  0.0900  0.0900  0.1300  0.2580  0.2300  0.2300  0.2300  0.2300  0.2300  0.2300  0.2300  0.2300  0.3600  1.3000  1.3000  1.4000  1.4000  1.4000  1.4500  1.4500  1.4500  1.2000  0.0604  0.0580  0.0609  0.0711  0.0712  0.0880  0.0897  0.1318  0.2576
 1982 184   129   0.0260  0.0250  0.0250  0.0250  0.0250  0.0280  0.0280  0.0290  0.0700  0.0960  0.0860  0.0860  0.0860  0.0860  0.0900  0.0900  0.1300  0.2580  0.2300  0.2300  0.2300  0.2300  0.2300  0.2300  0.2300  0.2300  0.3600  1.3000  1.3000  1.4000  1.4000  1.4000  1.4500  1.4500  1.4500  1.2000  0.0528  0.0549  0.0569  0.0653  0.0653  0.0869  0.0893  0.1318  0.2576
 1982 185   130   0.0260  0.0250  0.0250  0.0250  0.0250  0.0280  0.0280  0.0290  0.0700  0.0960  0.0860  0.0860  0.0860  0.0860  0.0900  0.0900  0.1300  0.2580  0.2300  0.2300  0.2300  0.2300  0.2300  0.2300  0.2300  0.2300  0.3600  1.3000  1.3000  1.4000  1.4000  1.4000  1.4500  1.4500  1.4500  1.2000  0.0475  0.0524  0.0540  0.0604  0.0603  0.0856  0.0887  0.1318  0.2576
