
*SOIL N BALANCE - CENTURY ROUTINES

*DSSAT Cropping System Model Ver. 4.8.5.021 -develop  JUL 11, 2025 15:11:37

!                              |--------------- Initial N State Variables ----------------|----------------- Final N State Variables -----------------|------------- N Additions -------------|---------------- N Subtractions -----------------|--Mineralization---|----- Seasonal Balance -----|
!                              |----------------- Organic ----------------------|         |------------------ Organic ----------------------|         |  Harvest   Applied                    |              Tile-     Plant     N gas     Flood|   Miner-    Immob-|                            |
!                              | Surface      SOM1      SOM2      SOM3    Litter     Inorg|  Surface      SOM1      SOM2      SOM3    Litter     Inorg|  Residue   Residue  Fertiliz   Senesed|  Leached   drained    Uptake    Losses    Losses|   alized    ilized|Inorganic   Organic   Overall
@Run FILEX               TN CR     SN0Di    S1NTDi    S2NTDi    S3NTDi     LNTDi     NIADi      SN0D     S1NTD     S2NTD     S3NTD      LNTD      NIAD      HRNH     RESNC      NICM     SNNTC      NLCM      TDFC      NUCM     NGasC      RNRO      NMNC      NIMC    InNBal   OrgNBal     SNBAL
   1 SWSW7501.WHX         1 WH      0.00      0.00   6408.00      0.00     11.40     68.82      0.57      0.00   6400.63      0.00      9.31     31.76      0.00      0.00      0.00      0.86      0.00      0.00     46.38      0.44      0.00      9.94      0.18     -0.00     -0.00     -0.00
