*SOIL WATER BY LAYER DAILY OUTPUT FILE

*DSSAT Cropping System Model Ver. 4.8.5.021 -develop  JUL 11, 2025 15:11:37

!----------------------------
! Variable Descriptions (unit)
!----------------------------
!YEAR    Year of current date of simulation (YYYY)
!DOY     Day of year (d)
!DAS     Days after start of simulation (d)
!LL#D    Volumetric soil water content at Lower Limit in soil layer # (cm3 [water] / cm3 [soil])
!DUL#D   Volumetric soil water content at Drained Upper Limit in soil layer # (cm3[water]/cm3[soil])
!SAT#D   Volumetric soil water content at Saturation in soil layer # (cm3 [water] / cm3 [soil])
!BD#D    Bulk density in soil layer # (g [soil] / cm3 [soil])
!SW#D    Volumetric soil water content in soil layer #  (cm3 [water] / cm3 [soil])

!                    0-5    5-15   15-30   30-45   45-60   60-75   75-90  90-120 120-150     0-5    5-15   15-30   30-45   45-60   60-75   75-90  90-120 120-150     0-5    5-15   15-30   30-45   45-60   60-75   75-90  90-120 120-150     0-5    5-15   15-30   30-45   45-60   60-75   75-90  90-120 120-150     0-5    5-15   15-30   30-45   45-60   60-75   75-90  90-120 120-150
@YEAR DOY   DAS     LL1D    LL2D    LL3D    LL4D    LL5D    LL6D    LL7D    LL8D    LL9D   DUL1D   DUL2D   DUL3D   DUL4D   DUL5D   DUL6D   DUL7D   DUL8D   DUL9D   SAT1D   SAT2D   SAT3D   SAT4D   SAT5D   SAT6D   SAT7D   SAT8D   SAT9D    BD1D    BD2D    BD3D    BD4D    BD5D    BD6D    BD7D    BD8D    BD9D    SW1D    SW2D    SW3D    SW4D    SW5D    SW6D    SW7D    SW8D    SW9D
 1975 132     1   0.0960  0.0960  0.1120  0.0940  0.1030  0.1030  0.1020  0.1020  0.1020  0.2300  0.2300  0.2500  0.2200  0.2200  0.2200  0.2500  0.2500  0.2500  0.4400  0.4400  0.4400  0.4400  0.4400  0.4400  0.4400  0.4400  0.4400  1.2000  1.2000  1.2000  1.2000  1.2000  1.2000  1.2000  1.2000  1.2000  0.2320  0.2272  0.2471  0.2188  0.2179  0.2182  0.2482  0.2485  0.2487
 1975 133     2   0.0960  0.0960  0.1120  0.0940  0.1030  0.1030  0.1020  0.1020  0.1020  0.2300  0.2300  0.2500  0.2200  0.2200  0.2200  0.2500  0.2500  0.2500  0.4400  0.4400  0.4400  0.4400  0.4400  0.4400  0.4400  0.4400  0.4400  1.2000  1.2000  1.2000  1.2000  1.2000  1.2000  1.2000  1.2000  1.2000  0.2519  0.2304  0.2478  0.2164  0.2160  0.2166  0.2466  0.2471  0.2476
 1975 134     3   0.0960  0.0960  0.1120  0.0940  0.1030  0.1030  0.1020  0.1020  0.1020  0.2300  0.2300  0.2500  0.2200  0.2200  0.2200  0.2500  0.2500  0.2500  0.4400  0.4400  0.4400  0.4400  0.4400  0.4400  0.4400  0.4400  0.4400  1.2000  1.2000  1.2000  1.2000  1.2000  1.2000  1.2000  1.2000  1.2000  0.2157  0.2213  0.2445  0.2144  0.2134  0.2144  0.2444  0.2453  0.2460
 1975 135     4   0.0960  0.0960  0.1120  0.0940  0.1030  0.1030  0.1020  0.1020  0.1020  0.2300  0.2300  0.2500  0.2200  0.2200  0.2200  0.2500  0.2500  0.2500  0.4400  0.4400  0.4400  0.4400  0.4400  0.4400  0.4400  0.4400  0.4400  1.2000  1.2000  1.2000  1.2000  1.2000  1.2000  1.2000  1.2000  1.2000  0.1990  0.2203  0.2443  0.2144  0.2134  0.2144  0.2444  0.2452  0.2460
 1975 136     5   0.0960  0.0960  0.1120  0.0940  0.1030  0.1030  0.1020  0.1020  0.1020  0.2300  0.2300  0.2500  0.2200  0.2200  0.2200  0.2500  0.2500  0.2500  0.4400  0.4400  0.4400  0.4400  0.4400  0.4400  0.4400  0.4400  0.4400  1.2000  1.2000  1.2000  1.2000  1.2000  1.2000  1.2000  1.2000  1.2000  0.1838  0.2192  0.2440  0.2143  0.2133  0.2144  0.2444  0.2452  0.2460
 1975 137     6   0.0960  0.0960  0.1120  0.0940  0.1030  0.1030  0.1020  0.1020  0.1020  0.2300  0.2300  0.2500  0.2200  0.2200  0.2200  0.2500  0.2500  0.2500  0.4400  0.4400  0.4400  0.4400  0.4400  0.4400  0.4400  0.4400  0.4400  1.2000  1.2000  1.2000  1.2000  1.2000  1.2000  1.2000  1.2000  1.2000  0.1700  0.2181  0.2438  0.2142  0.2133  0.2144  0.2443  0.2452  0.2460
 1975 138     7   0.0960  0.0960  0.1120  0.0940  0.1030  0.1030  0.1020  0.1020  0.1020  0.2300  0.2300  0.2500  0.2200  0.2200  0.2200  0.2500  0.2500  0.2500  0.4400  0.4400  0.4400  0.4400  0.4400  0.4400  0.4400  0.4400  0.4400  1.2000  1.2000  1.2000  1.2000  1.2000  1.2000  1.2000  1.2000  1.2000  0.1574  0.2170  0.2435  0.2141  0.2132  0.2144  0.2443  0.2452  0.2460
 1975 139     8   0.0960  0.0960  0.1120  0.0940  0.1030  0.1030  0.1020  0.1020  0.1020  0.2300  0.2300  0.2500  0.2200  0.2200  0.2200  0.2500  0.2500  0.2500  0.4400  0.4400  0.4400  0.4400  0.4400  0.4400  0.4400  0.4400  0.4400  1.2000  1.2000  1.2000  1.2000  1.2000  1.2000  1.2000  1.2000  1.2000  0.1459  0.2160  0.2433  0.2141  0.2132  0.2143  0.2443  0.2452  0.2460
 1975 140     9   0.0960  0.0960  0.1120  0.0940  0.1030  0.1030  0.1020  0.1020  0.1020  0.2300  0.2300  0.2500  0.2200  0.2200  0.2200  0.2500  0.2500  0.2500  0.4400  0.4400  0.4400  0.4400  0.4400  0.4400  0.4400  0.4400  0.4400  1.2000  1.2000  1.2000  1.2000  1.2000  1.2000  1.2000  1.2000  1.2000  0.1354  0.2149  0.2431  0.2140  0.2132  0.2143  0.2443  0.2452  0.2460
 1975 141    10   0.0960  0.0960  0.1120  0.0940  0.1030  0.1030  0.1020  0.1020  0.1020  0.2300  0.2300  0.2500  0.2200  0.2200  0.2200  0.2500  0.2500  0.2500  0.4400  0.4400  0.4400  0.4400  0.4400  0.4400  0.4400  0.4400  0.4400  1.2000  1.2000  1.2000  1.2000  1.2000  1.2000  1.2000  1.2000  1.2000  0.1259  0.2139  0.2428  0.2139  0.2131  0.2143  0.2443  0.2452  0.2460
 1975 142    11   0.0960  0.0960  0.1120  0.0940  0.1030  0.1030  0.1020  0.1020  0.1020  0.2300  0.2300  0.2500  0.2200  0.2200  0.2200  0.2500  0.2500  0.2500  0.4400  0.4400  0.4400  0.4400  0.4400  0.4400  0.4400  0.4400  0.4400  1.2000  1.2000  1.2000  1.2000  1.2000  1.2000  1.2000  1.2000  1.2000  0.1172  0.2128  0.2426  0.2138  0.2131  0.2143  0.2443  0.2452  0.2460
 1975 143    12   0.0960  0.0960  0.1120  0.0940  0.1030  0.1030  0.1020  0.1020  0.1020  0.2300  0.2300  0.2500  0.2200  0.2200  0.2200  0.2500  0.2500  0.2500  0.4400  0.4400  0.4400  0.4400  0.4400  0.4400  0.4400  0.4400  0.4400  1.2000  1.2000  1.2000  1.2000  1.2000  1.2000  1.2000  1.2000  1.2000  0.1093  0.2118  0.2423  0.2138  0.2131  0.2142  0.2442  0.2452  0.2460
 1975 144    13   0.0960  0.0960  0.1120  0.0940  0.1030  0.1030  0.1020  0.1020  0.1020  0.2300  0.2300  0.2500  0.2200  0.2200  0.2200  0.2500  0.2500  0.2500  0.4400  0.4400  0.4400  0.4400  0.4400  0.4400  0.4400  0.4400  0.4400  1.2000  1.2000  1.2000  1.2000  1.2000  1.2000  1.2000  1.2000  1.2000  0.1652  0.2108  0.2421  0.2137  0.2130  0.2142  0.2442  0.2451  0.2459
 1975 145    14   0.0960  0.0960  0.1120  0.0940  0.1030  0.1030  0.1020  0.1020  0.1020  0.2300  0.2300  0.2500  0.2200  0.2200  0.2200  0.2500  0.2500  0.2500  0.4400  0.4400  0.4400  0.4400  0.4400  0.4400  0.4400  0.4400  0.4400  1.2000  1.2000  1.2000  1.2000  1.2000  1.2000  1.2000  1.2000  1.2000  0.2160  0.2097  0.2419  0.2136  0.2130  0.2142  0.2442  0.2451  0.2459
 1975 146    15   0.0960  0.0960  0.1120  0.0940  0.1030  0.1030  0.1020  0.1020  0.1020  0.2300  0.2300  0.2500  0.2200  0.2200  0.2200  0.2500  0.2500  0.2500  0.4400  0.4400  0.4400  0.4400  0.4400  0.4400  0.4400  0.4400  0.4400  1.2000  1.2000  1.2000  1.2000  1.2000  1.2000  1.2000  1.2000  1.2000  0.2158  0.2101  0.2416  0.2135  0.2129  0.2142  0.2442  0.2451  0.2459
 1975 147    16   0.0960  0.0960  0.1120  0.0940  0.1030  0.1030  0.1020  0.1020  0.1020  0.2300  0.2300  0.2500  0.2200  0.2200  0.2200  0.2500  0.2500  0.2500  0.4400  0.4400  0.4400  0.4400  0.4400  0.4400  0.4400  0.4400  0.4400  1.2000  1.2000  1.2000  1.2000  1.2000  1.2000  1.2000  1.2000  1.2000  0.2189  0.2117  0.2414  0.2135  0.2129  0.2141  0.2442  0.2451  0.2459
 1975 148    17   0.0960  0.0960  0.1120  0.0940  0.1030  0.1030  0.1020  0.1020  0.1020  0.2300  0.2300  0.2500  0.2200  0.2200  0.2200  0.2500  0.2500  0.2500  0.4400  0.4400  0.4400  0.4400  0.4400  0.4400  0.4400  0.4400  0.4400  1.2000  1.2000  1.2000  1.2000  1.2000  1.2000  1.2000  1.2000  1.2000  0.2019  0.2107  0.2412  0.2134  0.2129  0.2141  0.2441  0.2451  0.2459
 1975 149    18   0.0960  0.0960  0.1120  0.0940  0.1030  0.1030  0.1020  0.1020  0.1020  0.2300  0.2300  0.2500  0.2200  0.2200  0.2200  0.2500  0.2500  0.2500  0.4400  0.4400  0.4400  0.4400  0.4400  0.4400  0.4400  0.4400  0.4400  1.2000  1.2000  1.2000  1.2000  1.2000  1.2000  1.2000  1.2000  1.2000  0.1864  0.2097  0.2409  0.2133  0.2128  0.2141  0.2441  0.2451  0.2459
 1975 150    19   0.0960  0.0960  0.1120  0.0940  0.1030  0.1030  0.1020  0.1020  0.1020  0.2300  0.2300  0.2500  0.2200  0.2200  0.2200  0.2500  0.2500  0.2500  0.4400  0.4400  0.4400  0.4400  0.4400  0.4400  0.4400  0.4400  0.4400  1.2000  1.2000  1.2000  1.2000  1.2000  1.2000  1.2000  1.2000  1.2000  0.1781  0.2086  0.2407  0.2132  0.2128  0.2141  0.2441  0.2451  0.2459
 1975 151    20   0.0960  0.0960  0.1120  0.0940  0.1030  0.1030  0.1020  0.1020  0.1020  0.2300  0.2300  0.2500  0.2200  0.2200  0.2200  0.2500  0.2500  0.2500  0.4400  0.4400  0.4400  0.4400  0.4400  0.4400  0.4400  0.4400  0.4400  1.2000  1.2000  1.2000  1.2000  1.2000  1.2000  1.2000  1.2000  1.2000  0.1896  0.2076  0.2404  0.2132  0.2128  0.2141  0.2441  0.2451  0.2459
 1975 152    21   0.0960  0.0960  0.1120  0.0940  0.1030  0.1030  0.1020  0.1020  0.1020  0.2300  0.2300  0.2500  0.2200  0.2200  0.2200  0.2500  0.2500  0.2500  0.4400  0.4400  0.4400  0.4400  0.4400  0.4400  0.4400  0.4400  0.4400  1.2000  1.2000  1.2000  1.2000  1.2000  1.2000  1.2000  1.2000  1.2000  0.1837  0.2065  0.2402  0.2131  0.2127  0.2140  0.2441  0.2451  0.2459
 1975 153    22   0.0960  0.0960  0.1120  0.0940  0.1030  0.1030  0.1020  0.1020  0.1020  0.2300  0.2300  0.2500  0.2200  0.2200  0.2200  0.2500  0.2500  0.2500  0.4400  0.4400  0.4400  0.4400  0.4400  0.4400  0.4400  0.4400  0.4400  1.2000  1.2000  1.2000  1.2000  1.2000  1.2000  1.2000  1.2000  1.2000  0.1680  0.2052  0.2400  0.2130  0.2127  0.2140  0.2441  0.2451  0.2459
 1975 154    23   0.0960  0.0960  0.1120  0.0940  0.1030  0.1030  0.1020  0.1020  0.1020  0.2300  0.2300  0.2500  0.2200  0.2200  0.2200  0.2500  0.2500  0.2500  0.4400  0.4400  0.4400  0.4400  0.4400  0.4400  0.4400  0.4400  0.4400  1.2000  1.2000  1.2000  1.2000  1.2000  1.2000  1.2000  1.2000  1.2000  0.2612  0.2243  0.2397  0.2129  0.2127  0.2140  0.2440  0.2450  0.2459
 1975 155    24   0.0960  0.0960  0.1120  0.0940  0.1030  0.1030  0.1020  0.1020  0.1020  0.2300  0.2300  0.2500  0.2200  0.2200  0.2200  0.2500  0.2500  0.2500  0.4400  0.4400  0.4400  0.4400  0.4400  0.4400  0.4400  0.4400  0.4400  1.2000  1.2000  1.2000  1.2000  1.2000  1.2000  1.2000  1.2000  1.2000  0.2267  0.2236  0.2377  0.2108  0.2110  0.2126  0.2426  0.2438  0.2449
 1975 156    25   0.0960  0.0960  0.1120  0.0940  0.1030  0.1030  0.1020  0.1020  0.1020  0.2300  0.2300  0.2500  0.2200  0.2200  0.2200  0.2500  0.2500  0.2500  0.4400  0.4400  0.4400  0.4400  0.4400  0.4400  0.4400  0.4400  0.4400  1.2000  1.2000  1.2000  1.2000  1.2000  1.2000  1.2000  1.2000  1.2000  0.2297  0.2222  0.2340  0.2072  0.2082  0.2102  0.2402  0.2418  0.2431
 1975 157    26   0.0960  0.0960  0.1120  0.0940  0.1030  0.1030  0.1020  0.1020  0.1020  0.2300  0.2300  0.2500  0.2200  0.2200  0.2200  0.2500  0.2500  0.2500  0.4400  0.4400  0.4400  0.4400  0.4400  0.4400  0.4400  0.4400  0.4400  1.2000  1.2000  1.2000  1.2000  1.2000  1.2000  1.2000  1.2000  1.2000  0.2242  0.2216  0.2283  0.2037  0.2054  0.2079  0.2378  0.2398  0.2414
 1975 158    27   0.0960  0.0960  0.1120  0.0940  0.1030  0.1030  0.1020  0.1020  0.1020  0.2300  0.2300  0.2500  0.2200  0.2200  0.2200  0.2500  0.2500  0.2500  0.4400  0.4400  0.4400  0.4400  0.4400  0.4400  0.4400  0.4400  0.4400  1.2000  1.2000  1.2000  1.2000  1.2000  1.2000  1.2000  1.2000  1.2000  0.2035  0.2192  0.2279  0.2036  0.2054  0.2078  0.2378  0.2398  0.2414
 1975 159    28   0.0960  0.0960  0.1120  0.0940  0.1030  0.1030  0.1020  0.1020  0.1020  0.2300  0.2300  0.2500  0.2200  0.2200  0.2200  0.2500  0.2500  0.2500  0.4400  0.4400  0.4400  0.4400  0.4400  0.4400  0.4400  0.4400  0.4400  1.2000  1.2000  1.2000  1.2000  1.2000  1.2000  1.2000  1.2000  1.2000  0.1845  0.2167  0.2274  0.2035  0.2054  0.2078  0.2378  0.2397  0.2414
 1975 160    29   0.0960  0.0960  0.1120  0.0940  0.1030  0.1030  0.1020  0.1020  0.1020  0.2300  0.2300  0.2500  0.2200  0.2200  0.2200  0.2500  0.2500  0.2500  0.4400  0.4400  0.4400  0.4400  0.4400  0.4400  0.4400  0.4400  0.4400  1.2000  1.2000  1.2000  1.2000  1.2000  1.2000  1.2000  1.2000  1.2000  0.1668  0.2140  0.2268  0.2035  0.2053  0.2078  0.2378  0.2397  0.2414
 1975 161    30   0.0960  0.0960  0.1120  0.0940  0.1030  0.1030  0.1020  0.1020  0.1020  0.2300  0.2300  0.2500  0.2200  0.2200  0.2200  0.2500  0.2500  0.2500  0.4400  0.4400  0.4400  0.4400  0.4400  0.4400  0.4400  0.4400  0.4400  1.2000  1.2000  1.2000  1.2000  1.2000  1.2000  1.2000  1.2000  1.2000  0.1504  0.2112  0.2261  0.2034  0.2053  0.2078  0.2378  0.2397  0.2414
 1975 162    31   0.0960  0.0960  0.1120  0.0940  0.1030  0.1030  0.1020  0.1020  0.1020  0.2300  0.2300  0.2500  0.2200  0.2200  0.2200  0.2500  0.2500  0.2500  0.4400  0.4400  0.4400  0.4400  0.4400  0.4400  0.4400  0.4400  0.4400  1.2000  1.2000  1.2000  1.2000  1.2000  1.2000  1.2000  1.2000  1.2000  0.1344  0.2078  0.2250  0.2033  0.2052  0.2078  0.2377  0.2397  0.2414
 1975 163    32   0.0960  0.0960  0.1120  0.0940  0.1030  0.1030  0.1020  0.1020  0.1020  0.2300  0.2300  0.2500  0.2200  0.2200  0.2200  0.2500  0.2500  0.2500  0.4400  0.4400  0.4400  0.4400  0.4400  0.4400  0.4400  0.4400  0.4400  1.2000  1.2000  1.2000  1.2000  1.2000  1.2000  1.2000  1.2000  1.2000  0.1242  0.2050  0.2240  0.2033  0.2052  0.2077  0.2377  0.2397  0.2414
 1975 164    33   0.0960  0.0960  0.1120  0.0940  0.1030  0.1030  0.1020  0.1020  0.1020  0.2300  0.2300  0.2500  0.2200  0.2200  0.2200  0.2500  0.2500  0.2500  0.4400  0.4400  0.4400  0.4400  0.4400  0.4400  0.4400  0.4400  0.4400  1.2000  1.2000  1.2000  1.2000  1.2000  1.2000  1.2000  1.2000  1.2000  0.1593  0.2021  0.2229  0.2032  0.2052  0.2077  0.2377  0.2397  0.2414
 1975 165    34   0.0960  0.0960  0.1120  0.0940  0.1030  0.1030  0.1020  0.1020  0.1020  0.2300  0.2300  0.2500  0.2200  0.2200  0.2200  0.2500  0.2500  0.2500  0.4400  0.4400  0.4400  0.4400  0.4400  0.4400  0.4400  0.4400  0.4400  1.2000  1.2000  1.2000  1.2000  1.2000  1.2000  1.2000  1.2000  1.2000  0.2137  0.1998  0.2221  0.2031  0.2051  0.2077  0.2377  0.2397  0.2414
 1975 166    35   0.0960  0.0960  0.1120  0.0940  0.1030  0.1030  0.1020  0.1020  0.1020  0.2300  0.2300  0.2500  0.2200  0.2200  0.2200  0.2500  0.2500  0.2500  0.4400  0.4400  0.4400  0.4400  0.4400  0.4400  0.4400  0.4400  0.4400  1.2000  1.2000  1.2000  1.2000  1.2000  1.2000  1.2000  1.2000  1.2000  0.1931  0.1970  0.2209  0.2029  0.2051  0.2077  0.2377  0.2397  0.2414
 1975 167    36   0.0960  0.0960  0.1120  0.0940  0.1030  0.1030  0.1020  0.1020  0.1020  0.2300  0.2300  0.2500  0.2200  0.2200  0.2200  0.2500  0.2500  0.2500  0.4400  0.4400  0.4400  0.4400  0.4400  0.4400  0.4400  0.4400  0.4400  1.2000  1.2000  1.2000  1.2000  1.2000  1.2000  1.2000  1.2000  1.2000  0.1741  0.1941  0.2196  0.2027  0.2051  0.2077  0.2377  0.2397  0.2414
 1975 168    37   0.0960  0.0960  0.1120  0.0940  0.1030  0.1030  0.1020  0.1020  0.1020  0.2300  0.2300  0.2500  0.2200  0.2200  0.2200  0.2500  0.2500  0.2500  0.4400  0.4400  0.4400  0.4400  0.4400  0.4400  0.4400  0.4400  0.4400  1.2000  1.2000  1.2000  1.2000  1.2000  1.2000  1.2000  1.2000  1.2000  0.2164  0.1938  0.2185  0.2025  0.2050  0.2076  0.2376  0.2396  0.2414
 1975 169    38   0.0960  0.0960  0.1120  0.0940  0.1030  0.1030  0.1020  0.1020  0.1020  0.2300  0.2300  0.2500  0.2200  0.2200  0.2200  0.2500  0.2500  0.2500  0.4400  0.4400  0.4400  0.4400  0.4400  0.4400  0.4400  0.4400  0.4400  1.2000  1.2000  1.2000  1.2000  1.2000  1.2000  1.2000  1.2000  1.2000  0.2165  0.1944  0.2169  0.2022  0.2050  0.2076  0.2376  0.2396  0.2413
 1975 170    39   0.0960  0.0960  0.1120  0.0940  0.1030  0.1030  0.1020  0.1020  0.1020  0.2300  0.2300  0.2500  0.2200  0.2200  0.2200  0.2500  0.2500  0.2500  0.4400  0.4400  0.4400  0.4400  0.4400  0.4400  0.4400  0.4400  0.4400  1.2000  1.2000  1.2000  1.2000  1.2000  1.2000  1.2000  1.2000  1.2000  0.3226  0.2736  0.2468  0.2000  0.2034  0.2063  0.2363  0.2385  0.2404
 1975 171    40   0.0960  0.0960  0.1120  0.0940  0.1030  0.1030  0.1020  0.1020  0.1020  0.2300  0.2300  0.2500  0.2200  0.2200  0.2200  0.2500  0.2500  0.2500  0.4400  0.4400  0.4400  0.4400  0.4400  0.4400  0.4400  0.4400  0.4400  1.2000  1.2000  1.2000  1.2000  1.2000  1.2000  1.2000  1.2000  1.2000  0.2710  0.2568  0.2556  0.2078  0.2021  0.2051  0.2351  0.2375  0.2395
 1975 172    41   0.0960  0.0960  0.1120  0.0940  0.1030  0.1030  0.1020  0.1020  0.1020  0.2300  0.2300  0.2500  0.2200  0.2200  0.2200  0.2500  0.2500  0.2500  0.4400  0.4400  0.4400  0.4400  0.4400  0.4400  0.4400  0.4400  0.4400  1.2000  1.2000  1.2000  1.2000  1.2000  1.2000  1.2000  1.2000  1.2000  0.2196  0.2312  0.2454  0.2162  0.2061  0.2032  0.2331  0.2358  0.2381
 1975 173    42   0.0960  0.0960  0.1120  0.0940  0.1030  0.1030  0.1020  0.1020  0.1020  0.2300  0.2300  0.2500  0.2200  0.2200  0.2200  0.2500  0.2500  0.2500  0.4400  0.4400  0.4400  0.4400  0.4400  0.4400  0.4400  0.4400  0.4400  1.2000  1.2000  1.2000  1.2000  1.2000  1.2000  1.2000  1.2000  1.2000  0.2060  0.2212  0.2392  0.2129  0.2041  0.2015  0.2314  0.2343  0.2369
 1975 174    43   0.0960  0.0960  0.1120  0.0940  0.1030  0.1030  0.1020  0.1020  0.1020  0.2300  0.2300  0.2500  0.2200  0.2200  0.2200  0.2500  0.2500  0.2500  0.4400  0.4400  0.4400  0.4400  0.4400  0.4400  0.4400  0.4400  0.4400  1.2000  1.2000  1.2000  1.2000  1.2000  1.2000  1.2000  1.2000  1.2000  0.1837  0.2166  0.2364  0.2118  0.2040  0.2015  0.2314  0.2343  0.2369
 1975 175    44   0.0960  0.0960  0.1120  0.0940  0.1030  0.1030  0.1020  0.1020  0.1020  0.2300  0.2300  0.2500  0.2200  0.2200  0.2200  0.2500  0.2500  0.2500  0.4400  0.4400  0.4400  0.4400  0.4400  0.4400  0.4400  0.4400  0.4400  1.2000  1.2000  1.2000  1.2000  1.2000  1.2000  1.2000  1.2000  1.2000  0.1722  0.2115  0.2331  0.2104  0.2038  0.2015  0.2314  0.2343  0.2369
 1975 176    45   0.0960  0.0960  0.1120  0.0940  0.1030  0.1030  0.1020  0.1020  0.1020  0.2300  0.2300  0.2500  0.2200  0.2200  0.2200  0.2500  0.2500  0.2500  0.4400  0.4400  0.4400  0.4400  0.4400  0.4400  0.4400  0.4400  0.4400  1.2000  1.2000  1.2000  1.2000  1.2000  1.2000  1.2000  1.2000  1.2000  0.3112  0.2327  0.2350  0.2068  0.2017  0.1999  0.2298  0.2329  0.2357
 1975 177    46   0.0960  0.0960  0.1120  0.0940  0.1030  0.1030  0.1020  0.1020  0.1020  0.2300  0.2300  0.2500  0.2200  0.2200  0.2200  0.2500  0.2500  0.2500  0.4400  0.4400  0.4400  0.4400  0.4400  0.4400  0.4400  0.4400  0.4400  1.2000  1.2000  1.2000  1.2000  1.2000  1.2000  1.2000  1.2000  1.2000  0.2779  0.2385  0.2408  0.2047  0.2005  0.1991  0.2289  0.2322  0.2351
 1975 178    47   0.0960  0.0960  0.1120  0.0940  0.1030  0.1030  0.1020  0.1020  0.1020  0.2300  0.2300  0.2500  0.2200  0.2200  0.2200  0.2500  0.2500  0.2500  0.4400  0.4400  0.4400  0.4400  0.4400  0.4400  0.4400  0.4400  0.4400  1.2000  1.2000  1.2000  1.2000  1.2000  1.2000  1.2000  1.2000  1.2000  0.2238  0.2220  0.2418  0.2019  0.1980  0.1974  0.2272  0.2307  0.2338
 1975 179    48   0.0960  0.0960  0.1120  0.0940  0.1030  0.1030  0.1020  0.1020  0.1020  0.2300  0.2300  0.2500  0.2200  0.2200  0.2200  0.2500  0.2500  0.2500  0.4400  0.4400  0.4400  0.4400  0.4400  0.4400  0.4400  0.4400  0.4400  1.2000  1.2000  1.2000  1.2000  1.2000  1.2000  1.2000  1.2000  1.2000  0.1983  0.2159  0.2374  0.1998  0.1972  0.1974  0.2272  0.2307  0.2338
 1975 180    49   0.0960  0.0960  0.1120  0.0940  0.1030  0.1030  0.1020  0.1020  0.1020  0.2300  0.2300  0.2500  0.2200  0.2200  0.2200  0.2500  0.2500  0.2500  0.4400  0.4400  0.4400  0.4400  0.4400  0.4400  0.4400  0.4400  0.4400  1.2000  1.2000  1.2000  1.2000  1.2000  1.2000  1.2000  1.2000  1.2000  0.1749  0.2097  0.2327  0.1974  0.1962  0.1973  0.2272  0.2307  0.2338
 1975 181    50   0.0960  0.0960  0.1120  0.0940  0.1030  0.1030  0.1020  0.1020  0.1020  0.2300  0.2300  0.2500  0.2200  0.2200  0.2200  0.2500  0.2500  0.2500  0.4400  0.4400  0.4400  0.4400  0.4400  0.4400  0.4400  0.4400  0.4400  1.2000  1.2000  1.2000  1.2000  1.2000  1.2000  1.2000  1.2000  1.2000  0.1533  0.2032  0.2276  0.1947  0.1949  0.1972  0.2272  0.2307  0.2338
 1975 182    51   0.0960  0.0960  0.1120  0.0940  0.1030  0.1030  0.1020  0.1020  0.1020  0.2300  0.2300  0.2500  0.2200  0.2200  0.2200  0.2500  0.2500  0.2500  0.4400  0.4400  0.4400  0.4400  0.4400  0.4400  0.4400  0.4400  0.4400  1.2000  1.2000  1.2000  1.2000  1.2000  1.2000  1.2000  1.2000  1.2000  0.1336  0.1967  0.2224  0.1918  0.1934  0.1970  0.2271  0.2307  0.2338
 1975 183    52   0.0960  0.0960  0.1120  0.0940  0.1030  0.1030  0.1020  0.1020  0.1020  0.2300  0.2300  0.2500  0.2200  0.2200  0.2200  0.2500  0.2500  0.2500  0.4400  0.4400  0.4400  0.4400  0.4400  0.4400  0.4400  0.4400  0.4400  1.2000  1.2000  1.2000  1.2000  1.2000  1.2000  1.2000  1.2000  1.2000  0.1218  0.1888  0.2157  0.1881  0.1913  0.1965  0.2271  0.2307  0.2338
 1975 184    53   0.0960  0.0960  0.1120  0.0940  0.1030  0.1030  0.1020  0.1020  0.1020  0.2300  0.2300  0.2500  0.2200  0.2200  0.2200  0.2500  0.2500  0.2500  0.4400  0.4400  0.4400  0.4400  0.4400  0.4400  0.4400  0.4400  0.4400  1.2000  1.2000  1.2000  1.2000  1.2000  1.2000  1.2000  1.2000  1.2000  0.1128  0.1816  0.2097  0.1845  0.1893  0.1960  0.2271  0.2307  0.2338
 1975 185    54   0.0960  0.0960  0.1120  0.0940  0.1030  0.1030  0.1020  0.1020  0.1020  0.2300  0.2300  0.2500  0.2200  0.2200  0.2200  0.2500  0.2500  0.2500  0.4400  0.4400  0.4400  0.4400  0.4400  0.4400  0.4400  0.4400  0.4400  1.2000  1.2000  1.2000  1.2000  1.2000  1.2000  1.2000  1.2000  1.2000  0.1297  0.1724  0.2018  0.1797  0.1864  0.1951  0.2271  0.2307  0.2338
 1975 186    55   0.0960  0.0960  0.1120  0.0940  0.1030  0.1030  0.1020  0.1020  0.1020  0.2300  0.2300  0.2500  0.2200  0.2200  0.2200  0.2500  0.2500  0.2500  0.4400  0.4400  0.4400  0.4400  0.4400  0.4400  0.4400  0.4400  0.4400  1.2000  1.2000  1.2000  1.2000  1.2000  1.2000  1.2000  1.2000  1.2000  0.1187  0.1630  0.1936  0.1746  0.1832  0.1940  0.2271  0.2306  0.2338
 1975 187    56   0.0960  0.0960  0.1120  0.0940  0.1030  0.1030  0.1020  0.1020  0.1020  0.2300  0.2300  0.2500  0.2200  0.2200  0.2200  0.2500  0.2500  0.2500  0.4400  0.4400  0.4400  0.4400  0.4400  0.4400  0.4400  0.4400  0.4400  1.2000  1.2000  1.2000  1.2000  1.2000  1.2000  1.2000  1.2000  1.2000  0.1729  0.1520  0.1837  0.1685  0.1792  0.1923  0.2270  0.2306  0.2337
 1975 188    57   0.0960  0.0960  0.1120  0.0940  0.1030  0.1030  0.1020  0.1020  0.1020  0.2300  0.2300  0.2500  0.2200  0.2200  0.2200  0.2500  0.2500  0.2500  0.4400  0.4400  0.4400  0.4400  0.4400  0.4400  0.4400  0.4400  0.4400  1.2000  1.2000  1.2000  1.2000  1.2000  1.2000  1.2000  1.2000  1.2000  0.1502  0.1447  0.1773  0.1644  0.1764  0.1911  0.2269  0.2306  0.2337
 1975 189    58   0.0960  0.0960  0.1120  0.0940  0.1030  0.1030  0.1020  0.1020  0.1020  0.2300  0.2300  0.2500  0.2200  0.2200  0.2200  0.2500  0.2500  0.2500  0.4400  0.4400  0.4400  0.4400  0.4400  0.4400  0.4400  0.4400  0.4400  1.2000  1.2000  1.2000  1.2000  1.2000  1.2000  1.2000  1.2000  1.2000  0.1276  0.1390  0.1696  0.1595  0.1731  0.1895  0.2267  0.2306  0.2337
 1975 190    59   0.0960  0.0960  0.1120  0.0940  0.1030  0.1030  0.1020  0.1020  0.1020  0.2300  0.2300  0.2500  0.2200  0.2200  0.2200  0.2500  0.2500  0.2500  0.4400  0.4400  0.4400  0.4400  0.4400  0.4400  0.4400  0.4400  0.4400  1.2000  1.2000  1.2000  1.2000  1.2000  1.2000  1.2000  1.2000  1.2000  0.1168  0.1345  0.1597  0.1530  0.1686  0.1872  0.2263  0.2306  0.2337
 1975 191    60   0.0960  0.0960  0.1120  0.0940  0.1030  0.1030  0.1020  0.1020  0.1020  0.2300  0.2300  0.2500  0.2200  0.2200  0.2200  0.2500  0.2500  0.2500  0.4400  0.4400  0.4400  0.4400  0.4400  0.4400  0.4400  0.4400  0.4400  1.2000  1.2000  1.2000  1.2000  1.2000  1.2000  1.2000  1.2000  1.2000  0.1079  0.1302  0.1526  0.1433  0.1619  0.1836  0.2256  0.2306  0.2337
 1975 192    61   0.0960  0.0960  0.1120  0.0940  0.1030  0.1030  0.1020  0.1020  0.1020  0.2300  0.2300  0.2500  0.2200  0.2200  0.2200  0.2500  0.2500  0.2500  0.4400  0.4400  0.4400  0.4400  0.4400  0.4400  0.4400  0.4400  0.4400  1.2000  1.2000  1.2000  1.2000  1.2000  1.2000  1.2000  1.2000  1.2000  0.1002  0.1264  0.1477  0.1348  0.1527  0.1786  0.2244  0.2306  0.2337
 1975 193    62   0.0960  0.0960  0.1120  0.0940  0.1030  0.1030  0.1020  0.1020  0.1020  0.2300  0.2300  0.2500  0.2200  0.2200  0.2200  0.2500  0.2500  0.2500  0.4400  0.4400  0.4400  0.4400  0.4400  0.4400  0.4400  0.4400  0.4400  1.2000  1.2000  1.2000  1.2000  1.2000  1.2000  1.2000  1.2000  1.2000  0.0939  0.1233  0.1441  0.1305  0.1464  0.1725  0.2228  0.2306  0.2337
 1975 194    63   0.0960  0.0960  0.1120  0.0940  0.1030  0.1030  0.1020  0.1020  0.1020  0.2300  0.2300  0.2500  0.2200  0.2200  0.2200  0.2500  0.2500  0.2500  0.4400  0.4400  0.4400  0.4400  0.4400  0.4400  0.4400  0.4400  0.4400  1.2000  1.2000  1.2000  1.2000  1.2000  1.2000  1.2000  1.2000  1.2000  0.0881  0.1208  0.1414  0.1275  0.1428  0.1661  0.2210  0.2305  0.2337
 1975 195    64   0.0960  0.0960  0.1120  0.0940  0.1030  0.1030  0.1020  0.1020  0.1020  0.2300  0.2300  0.2500  0.2200  0.2200  0.2200  0.2500  0.2500  0.2500  0.4400  0.4400  0.4400  0.4400  0.4400  0.4400  0.4400  0.4400  0.4400  1.2000  1.2000  1.2000  1.2000  1.2000  1.2000  1.2000  1.2000  1.2000  0.0828  0.1187  0.1392  0.1252  0.1401  0.1595  0.2190  0.2305  0.2337
 1975 196    65   0.0960  0.0960  0.1120  0.0940  0.1030  0.1030  0.1020  0.1020  0.1020  0.2300  0.2300  0.2500  0.2200  0.2200  0.2200  0.2500  0.2500  0.2500  0.4400  0.4400  0.4400  0.4400  0.4400  0.4400  0.4400  0.4400  0.4400  1.2000  1.2000  1.2000  1.2000  1.2000  1.2000  1.2000  1.2000  1.2000  0.0779  0.1169  0.1374  0.1233  0.1380  0.1526  0.2168  0.2305  0.2337
 1975 197    66   0.0960  0.0960  0.1120  0.0940  0.1030  0.1030  0.1020  0.1020  0.1020  0.2300  0.2300  0.2500  0.2200  0.2200  0.2200  0.2500  0.2500  0.2500  0.4400  0.4400  0.4400  0.4400  0.4400  0.4400  0.4400  0.4400  0.4400  1.2000  1.2000  1.2000  1.2000  1.2000  1.2000  1.2000  1.2000  1.2000  0.1499  0.1153  0.1358  0.1217  0.1362  0.1487  0.2145  0.2304  0.2337
 1975 198    67   0.0960  0.0960  0.1120  0.0940  0.1030  0.1030  0.1020  0.1020  0.1020  0.2300  0.2300  0.2500  0.2200  0.2200  0.2200  0.2500  0.2500  0.2500  0.4400  0.4400  0.4400  0.4400  0.4400  0.4400  0.4400  0.4400  0.4400  1.2000  1.2000  1.2000  1.2000  1.2000  1.2000  1.2000  1.2000  1.2000  0.1036  0.1138  0.1344  0.1203  0.1347  0.1459  0.2121  0.2303  0.2337
 1975 199    68   0.0960  0.0960  0.1120  0.0940  0.1030  0.1030  0.1020  0.1020  0.1020  0.2300  0.2300  0.2500  0.2200  0.2200  0.2200  0.2500  0.2500  0.2500  0.4400  0.4400  0.4400  0.4400  0.4400  0.4400  0.4400  0.4400  0.4400  1.2000  1.2000  1.2000  1.2000  1.2000  1.2000  1.2000  1.2000  1.2000  0.0964  0.1125  0.1331  0.1191  0.1333  0.1436  0.2095  0.2301  0.2337
 1975 200    69   0.0960  0.0960  0.1120  0.0940  0.1030  0.1030  0.1020  0.1020  0.1020  0.2300  0.2300  0.2500  0.2200  0.2200  0.2200  0.2500  0.2500  0.2500  0.4400  0.4400  0.4400  0.4400  0.4400  0.4400  0.4400  0.4400  0.4400  1.2000  1.2000  1.2000  1.2000  1.2000  1.2000  1.2000  1.2000  1.2000  0.0904  0.1113  0.1319  0.1179  0.1321  0.1417  0.2067  0.2299  0.2337
 1975 201    70   0.0960  0.0960  0.1120  0.0940  0.1030  0.1030  0.1020  0.1020  0.1020  0.2300  0.2300  0.2500  0.2200  0.2200  0.2200  0.2500  0.2500  0.2500  0.4400  0.4400  0.4400  0.4400  0.4400  0.4400  0.4400  0.4400  0.4400  1.2000  1.2000  1.2000  1.2000  1.2000  1.2000  1.2000  1.2000  1.2000  0.0849  0.1101  0.1309  0.1169  0.1310  0.1401  0.2039  0.2297  0.2336
 1975 202    71   0.0960  0.0960  0.1120  0.0940  0.1030  0.1030  0.1020  0.1020  0.1020  0.2300  0.2300  0.2500  0.2200  0.2200  0.2200  0.2500  0.2500  0.2500  0.4400  0.4400  0.4400  0.4400  0.4400  0.4400  0.4400  0.4400  0.4400  1.2000  1.2000  1.2000  1.2000  1.2000  1.2000  1.2000  1.2000  1.2000  0.0799  0.1090  0.1299  0.1159  0.1299  0.1387  0.2009  0.2294  0.2336
 1975 203    72   0.0960  0.0960  0.1120  0.0940  0.1030  0.1030  0.1020  0.1020  0.1020  0.2300  0.2300  0.2500  0.2200  0.2200  0.2200  0.2500  0.2500  0.2500  0.4400  0.4400  0.4400  0.4400  0.4400  0.4400  0.4400  0.4400  0.4400  1.2000  1.2000  1.2000  1.2000  1.2000  1.2000  1.2000  1.2000  1.2000  0.0753  0.1080  0.1290  0.1151  0.1290  0.1375  0.1979  0.2291  0.2336
 1975 204    73   0.0960  0.0960  0.1120  0.0940  0.1030  0.1030  0.1020  0.1020  0.1020  0.2300  0.2300  0.2500  0.2200  0.2200  0.2200  0.2500  0.2500  0.2500  0.4400  0.4400  0.4400  0.4400  0.4400  0.4400  0.4400  0.4400  0.4400  1.2000  1.2000  1.2000  1.2000  1.2000  1.2000  1.2000  1.2000  1.2000  0.0712  0.1071  0.1281  0.1142  0.1281  0.1363  0.1948  0.2288  0.2336
 1975 205    74   0.0960  0.0960  0.1120  0.0940  0.1030  0.1030  0.1020  0.1020  0.1020  0.2300  0.2300  0.2500  0.2200  0.2200  0.2200  0.2500  0.2500  0.2500  0.4400  0.4400  0.4400  0.4400  0.4400  0.4400  0.4400  0.4400  0.4400  1.2000  1.2000  1.2000  1.2000  1.2000  1.2000  1.2000  1.2000  1.2000  0.0674  0.1061  0.1273  0.1135  0.1273  0.1353  0.1915  0.2284  0.2336
 1975 206    75   0.0960  0.0960  0.1120  0.0940  0.1030  0.1030  0.1020  0.1020  0.1020  0.2300  0.2300  0.2500  0.2200  0.2200  0.2200  0.2500  0.2500  0.2500  0.4400  0.4400  0.4400  0.4400  0.4400  0.4400  0.4400  0.4400  0.4400  1.2000  1.2000  1.2000  1.2000  1.2000  1.2000  1.2000  1.2000  1.2000  0.0639  0.1053  0.1266  0.1127  0.1265  0.1343  0.1883  0.2279  0.2336
 1975 207    76   0.0960  0.0960  0.1120  0.0940  0.1030  0.1030  0.1020  0.1020  0.1020  0.2300  0.2300  0.2500  0.2200  0.2200  0.2200  0.2500  0.2500  0.2500  0.4400  0.4400  0.4400  0.4400  0.4400  0.4400  0.4400  0.4400  0.4400  1.2000  1.2000  1.2000  1.2000  1.2000  1.2000  1.2000  1.2000  1.2000  0.0608  0.1044  0.1259  0.1121  0.1258  0.1334  0.1849  0.2275  0.2336
 1975 208    77   0.0960  0.0960  0.1120  0.0940  0.1030  0.1030  0.1020  0.1020  0.1020  0.2300  0.2300  0.2500  0.2200  0.2200  0.2200  0.2500  0.2500  0.2500  0.4400  0.4400  0.4400  0.4400  0.4400  0.4400  0.4400  0.4400  0.4400  1.2000  1.2000  1.2000  1.2000  1.2000  1.2000  1.2000  1.2000  1.2000  0.0579  0.1036  0.1252  0.1114  0.1251  0.1326  0.1815  0.2270  0.2336
 1975 209    78   0.0960  0.0960  0.1120  0.0940  0.1030  0.1030  0.1020  0.1020  0.1020  0.2300  0.2300  0.2500  0.2200  0.2200  0.2200  0.2500  0.2500  0.2500  0.4400  0.4400  0.4400  0.4400  0.4400  0.4400  0.4400  0.4400  0.4400  1.2000  1.2000  1.2000  1.2000  1.2000  1.2000  1.2000  1.2000  1.2000  0.0553  0.1029  0.1245  0.1108  0.1245  0.1318  0.1781  0.2265  0.2336
 1975 210    79   0.0960  0.0960  0.1120  0.0940  0.1030  0.1030  0.1020  0.1020  0.1020  0.2300  0.2300  0.2500  0.2200  0.2200  0.2200  0.2500  0.2500  0.2500  0.4400  0.4400  0.4400  0.4400  0.4400  0.4400  0.4400  0.4400  0.4400  1.2000  1.2000  1.2000  1.2000  1.2000  1.2000  1.2000  1.2000  1.2000  0.1446  0.1021  0.1239  0.1103  0.1239  0.1311  0.1747  0.2260  0.2336
 1975 211    80   0.0960  0.0960  0.1120  0.0940  0.1030  0.1030  0.1020  0.1020  0.1020  0.2300  0.2300  0.2500  0.2200  0.2200  0.2200  0.2500  0.2500  0.2500  0.4400  0.4400  0.4400  0.4400  0.4400  0.4400  0.4400  0.4400  0.4400  1.2000  1.2000  1.2000  1.2000  1.2000  1.2000  1.2000  1.2000  1.2000  0.1341  0.1015  0.1236  0.1099  0.1236  0.1307  0.1728  0.2257  0.2336
 1975 212    81   0.0960  0.0960  0.1120  0.0940  0.1030  0.1030  0.1020  0.1020  0.1020  0.2300  0.2300  0.2500  0.2200  0.2200  0.2200  0.2500  0.2500  0.2500  0.4400  0.4400  0.4400  0.4400  0.4400  0.4400  0.4400  0.4400  0.4400  1.2000  1.2000  1.2000  1.2000  1.2000  1.2000  1.2000  1.2000  1.2000  0.3273  0.2169  0.1222  0.1089  0.1226  0.1298  0.1698  0.2245  0.2329
 1975 213    82   0.0960  0.0960  0.1120  0.0940  0.1030  0.1030  0.1020  0.1020  0.1020  0.2300  0.2300  0.2500  0.2200  0.2200  0.2200  0.2500  0.2500  0.2500  0.4400  0.4400  0.4400  0.4400  0.4400  0.4400  0.4400  0.4400  0.4400  1.2000  1.2000  1.2000  1.2000  1.2000  1.2000  1.2000  1.2000  1.2000  0.2655  0.2260  0.1244  0.1082  0.1219  0.1291  0.1686  0.2236  0.2322
 1975 214    83   0.0960  0.0960  0.1120  0.0940  0.1030  0.1030  0.1020  0.1020  0.1020  0.2300  0.2300  0.2500  0.2200  0.2200  0.2200  0.2500  0.2500  0.2500  0.4400  0.4400  0.4400  0.4400  0.4400  0.4400  0.4400  0.4400  0.4400  1.2000  1.2000  1.2000  1.2000  1.2000  1.2000  1.2000  1.2000  1.2000  0.2156  0.2156  0.1238  0.1067  0.1206  0.1279  0.1661  0.2219  0.2308
 1975 215    84   0.0960  0.0960  0.1120  0.0940  0.1030  0.1030  0.1020  0.1020  0.1020  0.2300  0.2300  0.2500  0.2200  0.2200  0.2200  0.2500  0.2500  0.2500  0.4400  0.4400  0.4400  0.4400  0.4400  0.4400  0.4400  0.4400  0.4400  1.2000  1.2000  1.2000  1.2000  1.2000  1.2000  1.2000  1.2000  1.2000  0.1970  0.2091  0.1236  0.1066  0.1205  0.1277  0.1654  0.2218  0.2308
 1975 216    85   0.0960  0.0960  0.1120  0.0940  0.1030  0.1030  0.1020  0.1020  0.1020  0.2300  0.2300  0.2500  0.2200  0.2200  0.2200  0.2500  0.2500  0.2500  0.4400  0.4400  0.4400  0.4400  0.4400  0.4400  0.4400  0.4400  0.4400  1.2000  1.2000  1.2000  1.2000  1.2000  1.2000  1.2000  1.2000  1.2000  0.1736  0.2022  0.1234  0.1065  0.1204  0.1276  0.1647  0.2216  0.2308
 1975 217    86   0.0960  0.0960  0.1120  0.0940  0.1030  0.1030  0.1020  0.1020  0.1020  0.2300  0.2300  0.2500  0.2200  0.2200  0.2200  0.2500  0.2500  0.2500  0.4400  0.4400  0.4400  0.4400  0.4400  0.4400  0.4400  0.4400  0.4400  1.2000  1.2000  1.2000  1.2000  1.2000  1.2000  1.2000  1.2000  1.2000  0.1482  0.1925  0.1232  0.1063  0.1202  0.1275  0.1636  0.2214  0.2308
 1975 218    87   0.0960  0.0960  0.1120  0.0940  0.1030  0.1030  0.1020  0.1020  0.1020  0.2300  0.2300  0.2500  0.2200  0.2200  0.2200  0.2500  0.2500  0.2500  0.4400  0.4400  0.4400  0.4400  0.4400  0.4400  0.4400  0.4400  0.4400  1.2000  1.2000  1.2000  1.2000  1.2000  1.2000  1.2000  1.2000  1.2000  0.1262  0.1834  0.1229  0.1062  0.1201  0.1273  0.1625  0.2213  0.2308
 1975 219    88   0.0960  0.0960  0.1120  0.0940  0.1030  0.1030  0.1020  0.1020  0.1020  0.2300  0.2300  0.2500  0.2200  0.2200  0.2200  0.2500  0.2500  0.2500  0.4400  0.4400  0.4400  0.4400  0.4400  0.4400  0.4400  0.4400  0.4400  1.2000  1.2000  1.2000  1.2000  1.2000  1.2000  1.2000  1.2000  1.2000  0.2634  0.1989  0.1228  0.1061  0.1200  0.1272  0.1620  0.2212  0.2308
 1975 220    89   0.0960  0.0960  0.1120  0.0940  0.1030  0.1030  0.1020  0.1020  0.1020  0.2300  0.2300  0.2500  0.2200  0.2200  0.2200  0.2500  0.2500  0.2500  0.4400  0.4400  0.4400  0.4400  0.4400  0.4400  0.4400  0.4400  0.4400  1.2000  1.2000  1.2000  1.2000  1.2000  1.2000  1.2000  1.2000  1.2000  0.2103  0.1936  0.1201  0.1045  0.1185  0.1258  0.1598  0.2192  0.2291
 1975 221    90   0.0960  0.0960  0.1120  0.0940  0.1030  0.1030  0.1020  0.1020  0.1020  0.2300  0.2300  0.2500  0.2200  0.2200  0.2200  0.2500  0.2500  0.2500  0.4400  0.4400  0.4400  0.4400  0.4400  0.4400  0.4400  0.4400  0.4400  1.2000  1.2000  1.2000  1.2000  1.2000  1.2000  1.2000  1.2000  1.2000  0.1884  0.1886  0.1199  0.1044  0.1184  0.1258  0.1593  0.2191  0.2291
 1975 222    91   0.0960  0.0960  0.1120  0.0940  0.1030  0.1030  0.1020  0.1020  0.1020  0.2300  0.2300  0.2500  0.2200  0.2200  0.2200  0.2500  0.2500  0.2500  0.4400  0.4400  0.4400  0.4400  0.4400  0.4400  0.4400  0.4400  0.4400  1.2000  1.2000  1.2000  1.2000  1.2000  1.2000  1.2000  1.2000  1.2000  0.1703  0.1850  0.1198  0.1043  0.1184  0.1257  0.1590  0.2190  0.2291
 1975 223    92   0.0960  0.0960  0.1120  0.0940  0.1030  0.1030  0.1020  0.1020  0.1020  0.2300  0.2300  0.2500  0.2200  0.2200  0.2200  0.2500  0.2500  0.2500  0.4400  0.4400  0.4400  0.4400  0.4400  0.4400  0.4400  0.4400  0.4400  1.2000  1.2000  1.2000  1.2000  1.2000  1.2000  1.2000  1.2000  1.2000  0.1932  0.1822  0.1197  0.1043  0.1183  0.1257  0.1587  0.2190  0.2291
 1975 224    93   0.0960  0.0960  0.1120  0.0940  0.1030  0.1030  0.1020  0.1020  0.1020  0.2300  0.2300  0.2500  0.2200  0.2200  0.2200  0.2500  0.2500  0.2500  0.4400  0.4400  0.4400  0.4400  0.4400  0.4400  0.4400  0.4400  0.4400  1.2000  1.2000  1.2000  1.2000  1.2000  1.2000  1.2000  1.2000  1.2000  0.1758  0.1795  0.1196  0.1042  0.1183  0.1256  0.1585  0.2189  0.2291
 1975 225    94   0.0960  0.0960  0.1120  0.0940  0.1030  0.1030  0.1020  0.1020  0.1020  0.2300  0.2300  0.2500  0.2200  0.2200  0.2200  0.2500  0.2500  0.2500  0.4400  0.4400  0.4400  0.4400  0.4400  0.4400  0.4400  0.4400  0.4400  1.2000  1.2000  1.2000  1.2000  1.2000  1.2000  1.2000  1.2000  1.2000  0.1614  0.1778  0.1195  0.1042  0.1183  0.1256  0.1583  0.2189  0.2291
 1975 226    95   0.0960  0.0960  0.1120  0.0940  0.1030  0.1030  0.1020  0.1020  0.1020  0.2300  0.2300  0.2500  0.2200  0.2200  0.2200  0.2500  0.2500  0.2500  0.4400  0.4400  0.4400  0.4400  0.4400  0.4400  0.4400  0.4400  0.4400  1.2000  1.2000  1.2000  1.2000  1.2000  1.2000  1.2000  1.2000  1.2000  0.1493  0.1767  0.1194  0.1042  0.1183  0.1256  0.1583  0.2189  0.2291
 1975 227    96   0.0960  0.0960  0.1120  0.0940  0.1030  0.1030  0.1020  0.1020  0.1020  0.2300  0.2300  0.2500  0.2200  0.2200  0.2200  0.2500  0.2500  0.2500  0.4400  0.4400  0.4400  0.4400  0.4400  0.4400  0.4400  0.4400  0.4400  1.2000  1.2000  1.2000  1.2000  1.2000  1.2000  1.2000  1.2000  1.2000  0.1385  0.1759  0.1193  0.1041  0.1182  0.1256  0.1583  0.2188  0.2290
 1975 228    97   0.0960  0.0960  0.1120  0.0940  0.1030  0.1030  0.1020  0.1020  0.1020  0.2300  0.2300  0.2500  0.2200  0.2200  0.2200  0.2500  0.2500  0.2500  0.4400  0.4400  0.4400  0.4400  0.4400  0.4400  0.4400  0.4400  0.4400  1.2000  1.2000  1.2000  1.2000  1.2000  1.2000  1.2000  1.2000  1.2000  0.1287  0.1751  0.1192  0.1041  0.1182  0.1256  0.1583  0.2188  0.2290
 1975 229    98   0.0960  0.0960  0.1120  0.0940  0.1030  0.1030  0.1020  0.1020  0.1020  0.2300  0.2300  0.2500  0.2200  0.2200  0.2200  0.2500  0.2500  0.2500  0.4400  0.4400  0.4400  0.4400  0.4400  0.4400  0.4400  0.4400  0.4400  1.2000  1.2000  1.2000  1.2000  1.2000  1.2000  1.2000  1.2000  1.2000  0.2190  0.1753  0.1191  0.1041  0.1182  0.1256  0.1583  0.2188  0.2290
 1975 230    99   0.0960  0.0960  0.1120  0.0940  0.1030  0.1030  0.1020  0.1020  0.1020  0.2300  0.2300  0.2500  0.2200  0.2200  0.2200  0.2500  0.2500  0.2500  0.4400  0.4400  0.4400  0.4400  0.4400  0.4400  0.4400  0.4400  0.4400  1.2000  1.2000  1.2000  1.2000  1.2000  1.2000  1.2000  1.2000  1.2000  0.2020  0.1745  0.1190  0.1040  0.1182  0.1256  0.1582  0.2188  0.2290
 1975 231   100   0.0960  0.0960  0.1120  0.0940  0.1030  0.1030  0.1020  0.1020  0.1020  0.2300  0.2300  0.2500  0.2200  0.2200  0.2200  0.2500  0.2500  0.2500  0.4400  0.4400  0.4400  0.4400  0.4400  0.4400  0.4400  0.4400  0.4400  1.2000  1.2000  1.2000  1.2000  1.2000  1.2000  1.2000  1.2000  1.2000  0.2763  0.1968  0.1169  0.1027  0.1170  0.1245  0.1570  0.2173  0.2277
 1975 232   101   0.0960  0.0960  0.1120  0.0940  0.1030  0.1030  0.1020  0.1020  0.1020  0.2300  0.2300  0.2500  0.2200  0.2200  0.2200  0.2500  0.2500  0.2500  0.4400  0.4400  0.4400  0.4400  0.4400  0.4400  0.4400  0.4400  0.4400  1.2000  1.2000  1.2000  1.2000  1.2000  1.2000  1.2000  1.2000  1.2000  0.2759  0.2200  0.1148  0.1015  0.1158  0.1234  0.1557  0.2157  0.2263
 1975 233   102   0.0960  0.0960  0.1120  0.0940  0.1030  0.1030  0.1020  0.1020  0.1020  0.2300  0.2300  0.2500  0.2200  0.2200  0.2200  0.2500  0.2500  0.2500  0.4400  0.4400  0.4400  0.4400  0.4400  0.4400  0.4400  0.4400  0.4400  1.2000  1.2000  1.2000  1.2000  1.2000  1.2000  1.2000  1.2000  1.2000  0.3069  0.2856  0.1568  0.0999  0.1145  0.1222  0.1543  0.2138  0.2246

*DSSAT Cropping System Model Ver. 4.8.5.021 -develop  JUL 14, 2025 11:47:22
!                    0-5    5-15   15-30   30-45   45-60   60-75   75-90  90-120 120-150     0-5    5-15   15-30   30-45   45-60   60-75   75-90  90-120 120-150     0-5    5-15   15-30   30-45   45-60   60-75   75-90  90-120 120-150     0-5    5-15   15-30   30-45   45-60   60-75   75-90  90-120 120-150     0-5    5-15   15-30   30-45   45-60   60-75   75-90  90-120 120-150
@YEAR DOY   DAS     LL1D    LL2D    LL3D    LL4D    LL5D    LL6D    LL7D    LL8D    LL9D   DUL1D   DUL2D   DUL3D   DUL4D   DUL5D   DUL6D   DUL7D   DUL8D   DUL9D   SAT1D   SAT2D   SAT3D   SAT4D   SAT5D   SAT6D   SAT7D   SAT8D   SAT9D    BD1D    BD2D    BD3D    BD4D    BD5D    BD6D    BD7D    BD8D    BD9D    SW1D    SW2D    SW3D    SW4D    SW5D    SW6D    SW7D    SW8D    SW9D
 1975 132     1   0.0960  0.0960  0.1120  0.0940  0.1030  0.1030  0.1020  0.1020  0.1020  0.2300  0.2300  0.2500  0.2200  0.2200  0.2200  0.2500  0.2500  0.2500  0.4400  0.4400  0.4400  0.4400  0.4400  0.4400  0.4400  0.4400  0.4400  1.2000  1.2000  1.2000  1.2000  1.2000  1.2000  1.2000  1.2000  1.2000  0.2320  0.2272  0.2471  0.2188  0.2179  0.2182  0.2482  0.2485  0.2487
 1975 133     2   0.0960  0.0960  0.1120  0.0940  0.1030  0.1030  0.1020  0.1020  0.1020  0.2300  0.2300  0.2500  0.2200  0.2200  0.2200  0.2500  0.2500  0.2500  0.4400  0.4400  0.4400  0.4400  0.4400  0.4400  0.4400  0.4400  0.4400  1.2000  1.2000  1.2000  1.2000  1.2000  1.2000  1.2000  1.2000  1.2000  0.2519  0.2304  0.2478  0.2164  0.2160  0.2166  0.2466  0.2471  0.2476
 1975 134     3   0.0960  0.0960  0.1120  0.0940  0.1030  0.1030  0.1020  0.1020  0.1020  0.2300  0.2300  0.2500  0.2200  0.2200  0.2200  0.2500  0.2500  0.2500  0.4400  0.4400  0.4400  0.4400  0.4400  0.4400  0.4400  0.4400  0.4400  1.2000  1.2000  1.2000  1.2000  1.2000  1.2000  1.2000  1.2000  1.2000  0.2157  0.2213  0.2445  0.2144  0.2134  0.2144  0.2444  0.2453  0.2460
 1975 135     4   0.0960  0.0960  0.1120  0.0940  0.1030  0.1030  0.1020  0.1020  0.1020  0.2300  0.2300  0.2500  0.2200  0.2200  0.2200  0.2500  0.2500  0.2500  0.4400  0.4400  0.4400  0.4400  0.4400  0.4400  0.4400  0.4400  0.4400  1.2000  1.2000  1.2000  1.2000  1.2000  1.2000  1.2000  1.2000  1.2000  0.1990  0.2203  0.2443  0.2144  0.2134  0.2144  0.2444  0.2452  0.2460
 1975 136     5   0.0960  0.0960  0.1120  0.0940  0.1030  0.1030  0.1020  0.1020  0.1020  0.2300  0.2300  0.2500  0.2200  0.2200  0.2200  0.2500  0.2500  0.2500  0.4400  0.4400  0.4400  0.4400  0.4400  0.4400  0.4400  0.4400  0.4400  1.2000  1.2000  1.2000  1.2000  1.2000  1.2000  1.2000  1.2000  1.2000  0.1838  0.2192  0.2440  0.2143  0.2133  0.2144  0.2444  0.2452  0.2460
 1975 137     6   0.0960  0.0960  0.1120  0.0940  0.1030  0.1030  0.1020  0.1020  0.1020  0.2300  0.2300  0.2500  0.2200  0.2200  0.2200  0.2500  0.2500  0.2500  0.4400  0.4400  0.4400  0.4400  0.4400  0.4400  0.4400  0.4400  0.4400  1.2000  1.2000  1.2000  1.2000  1.2000  1.2000  1.2000  1.2000  1.2000  0.1700  0.2181  0.2438  0.2142  0.2133  0.2144  0.2443  0.2452  0.2460
 1975 138     7   0.0960  0.0960  0.1120  0.0940  0.1030  0.1030  0.1020  0.1020  0.1020  0.2300  0.2300  0.2500  0.2200  0.2200  0.2200  0.2500  0.2500  0.2500  0.4400  0.4400  0.4400  0.4400  0.4400  0.4400  0.4400  0.4400  0.4400  1.2000  1.2000  1.2000  1.2000  1.2000  1.2000  1.2000  1.2000  1.2000  0.1574  0.2170  0.2435  0.2141  0.2132  0.2144  0.2443  0.2452  0.2460
 1975 139     8   0.0960  0.0960  0.1120  0.0940  0.1030  0.1030  0.1020  0.1020  0.1020  0.2300  0.2300  0.2500  0.2200  0.2200  0.2200  0.2500  0.2500  0.2500  0.4400  0.4400  0.4400  0.4400  0.4400  0.4400  0.4400  0.4400  0.4400  1.2000  1.2000  1.2000  1.2000  1.2000  1.2000  1.2000  1.2000  1.2000  0.1459  0.2160  0.2433  0.2141  0.2132  0.2143  0.2443  0.2452  0.2460
 1975 140     9   0.0960  0.0960  0.1120  0.0940  0.1030  0.1030  0.1020  0.1020  0.1020  0.2300  0.2300  0.2500  0.2200  0.2200  0.2200  0.2500  0.2500  0.2500  0.4400  0.4400  0.4400  0.4400  0.4400  0.4400  0.4400  0.4400  0.4400  1.2000  1.2000  1.2000  1.2000  1.2000  1.2000  1.2000  1.2000  1.2000  0.1354  0.2149  0.2431  0.2140  0.2132  0.2143  0.2443  0.2452  0.2460
 1975 141    10   0.0960  0.0960  0.1120  0.0940  0.1030  0.1030  0.1020  0.1020  0.1020  0.2300  0.2300  0.2500  0.2200  0.2200  0.2200  0.2500  0.2500  0.2500  0.4400  0.4400  0.4400  0.4400  0.4400  0.4400  0.4400  0.4400  0.4400  1.2000  1.2000  1.2000  1.2000  1.2000  1.2000  1.2000  1.2000  1.2000  0.1259  0.2139  0.2428  0.2139  0.2131  0.2143  0.2443  0.2452  0.2460
 1975 142    11   0.0960  0.0960  0.1120  0.0940  0.1030  0.1030  0.1020  0.1020  0.1020  0.2300  0.2300  0.2500  0.2200  0.2200  0.2200  0.2500  0.2500  0.2500  0.4400  0.4400  0.4400  0.4400  0.4400  0.4400  0.4400  0.4400  0.4400  1.2000  1.2000  1.2000  1.2000  1.2000  1.2000  1.2000  1.2000  1.2000  0.1172  0.2128  0.2426  0.2138  0.2131  0.2143  0.2443  0.2452  0.2460
 1975 143    12   0.0960  0.0960  0.1120  0.0940  0.1030  0.1030  0.1020  0.1020  0.1020  0.2300  0.2300  0.2500  0.2200  0.2200  0.2200  0.2500  0.2500  0.2500  0.4400  0.4400  0.4400  0.4400  0.4400  0.4400  0.4400  0.4400  0.4400  1.2000  1.2000  1.2000  1.2000  1.2000  1.2000  1.2000  1.2000  1.2000  0.1093  0.2118  0.2423  0.2138  0.2131  0.2142  0.2442  0.2452  0.2460
 1975 144    13   0.0960  0.0960  0.1120  0.0940  0.1030  0.1030  0.1020  0.1020  0.1020  0.2300  0.2300  0.2500  0.2200  0.2200  0.2200  0.2500  0.2500  0.2500  0.4400  0.4400  0.4400  0.4400  0.4400  0.4400  0.4400  0.4400  0.4400  1.2000  1.2000  1.2000  1.2000  1.2000  1.2000  1.2000  1.2000  1.2000  0.1652  0.2108  0.2421  0.2137  0.2130  0.2142  0.2442  0.2451  0.2459
 1975 145    14   0.0960  0.0960  0.1120  0.0940  0.1030  0.1030  0.1020  0.1020  0.1020  0.2300  0.2300  0.2500  0.2200  0.2200  0.2200  0.2500  0.2500  0.2500  0.4400  0.4400  0.4400  0.4400  0.4400  0.4400  0.4400  0.4400  0.4400  1.2000  1.2000  1.2000  1.2000  1.2000  1.2000  1.2000  1.2000  1.2000  0.2160  0.2097  0.2419  0.2136  0.2130  0.2142  0.2442  0.2451  0.2459
 1975 146    15   0.0960  0.0960  0.1120  0.0940  0.1030  0.1030  0.1020  0.1020  0.1020  0.2300  0.2300  0.2500  0.2200  0.2200  0.2200  0.2500  0.2500  0.2500  0.4400  0.4400  0.4400  0.4400  0.4400  0.4400  0.4400  0.4400  0.4400  1.2000  1.2000  1.2000  1.2000  1.2000  1.2000  1.2000  1.2000  1.2000  0.2158  0.2101  0.2416  0.2135  0.2129  0.2142  0.2442  0.2451  0.2459
 1975 147    16   0.0960  0.0960  0.1120  0.0940  0.1030  0.1030  0.1020  0.1020  0.1020  0.2300  0.2300  0.2500  0.2200  0.2200  0.2200  0.2500  0.2500  0.2500  0.4400  0.4400  0.4400  0.4400  0.4400  0.4400  0.4400  0.4400  0.4400  1.2000  1.2000  1.2000  1.2000  1.2000  1.2000  1.2000  1.2000  1.2000  0.2189  0.2117  0.2414  0.2135  0.2129  0.2141  0.2442  0.2451  0.2459
 1975 148    17   0.0960  0.0960  0.1120  0.0940  0.1030  0.1030  0.1020  0.1020  0.1020  0.2300  0.2300  0.2500  0.2200  0.2200  0.2200  0.2500  0.2500  0.2500  0.4400  0.4400  0.4400  0.4400  0.4400  0.4400  0.4400  0.4400  0.4400  1.2000  1.2000  1.2000  1.2000  1.2000  1.2000  1.2000  1.2000  1.2000  0.2019  0.2107  0.2412  0.2134  0.2129  0.2141  0.2441  0.2451  0.2459
 1975 149    18   0.0960  0.0960  0.1120  0.0940  0.1030  0.1030  0.1020  0.1020  0.1020  0.2300  0.2300  0.2500  0.2200  0.2200  0.2200  0.2500  0.2500  0.2500  0.4400  0.4400  0.4400  0.4400  0.4400  0.4400  0.4400  0.4400  0.4400  1.2000  1.2000  1.2000  1.2000  1.2000  1.2000  1.2000  1.2000  1.2000  0.1864  0.2097  0.2409  0.2133  0.2128  0.2141  0.2441  0.2451  0.2459
 1975 150    19   0.0960  0.0960  0.1120  0.0940  0.1030  0.1030  0.1020  0.1020  0.1020  0.2300  0.2300  0.2500  0.2200  0.2200  0.2200  0.2500  0.2500  0.2500  0.4400  0.4400  0.4400  0.4400  0.4400  0.4400  0.4400  0.4400  0.4400  1.2000  1.2000  1.2000  1.2000  1.2000  1.2000  1.2000  1.2000  1.2000  0.1781  0.2086  0.2407  0.2132  0.2128  0.2141  0.2441  0.2451  0.2459
 1975 151    20   0.0960  0.0960  0.1120  0.0940  0.1030  0.1030  0.1020  0.1020  0.1020  0.2300  0.2300  0.2500  0.2200  0.2200  0.2200  0.2500  0.2500  0.2500  0.4400  0.4400  0.4400  0.4400  0.4400  0.4400  0.4400  0.4400  0.4400  1.2000  1.2000  1.2000  1.2000  1.2000  1.2000  1.2000  1.2000  1.2000  0.1896  0.2076  0.2404  0.2132  0.2128  0.2141  0.2441  0.2451  0.2459
 1975 152    21   0.0960  0.0960  0.1120  0.0940  0.1030  0.1030  0.1020  0.1020  0.1020  0.2300  0.2300  0.2500  0.2200  0.2200  0.2200  0.2500  0.2500  0.2500  0.4400  0.4400  0.4400  0.4400  0.4400  0.4400  0.4400  0.4400  0.4400  1.2000  1.2000  1.2000  1.2000  1.2000  1.2000  1.2000  1.2000  1.2000  0.1837  0.2065  0.2402  0.2131  0.2127  0.2140  0.2441  0.2451  0.2459
 1975 153    22   0.0960  0.0960  0.1120  0.0940  0.1030  0.1030  0.1020  0.1020  0.1020  0.2300  0.2300  0.2500  0.2200  0.2200  0.2200  0.2500  0.2500  0.2500  0.4400  0.4400  0.4400  0.4400  0.4400  0.4400  0.4400  0.4400  0.4400  1.2000  1.2000  1.2000  1.2000  1.2000  1.2000  1.2000  1.2000  1.2000  0.1680  0.2052  0.2400  0.2130  0.2127  0.2140  0.2441  0.2451  0.2459
 1975 154    23   0.0960  0.0960  0.1120  0.0940  0.1030  0.1030  0.1020  0.1020  0.1020  0.2300  0.2300  0.2500  0.2200  0.2200  0.2200  0.2500  0.2500  0.2500  0.4400  0.4400  0.4400  0.4400  0.4400  0.4400  0.4400  0.4400  0.4400  1.2000  1.2000  1.2000  1.2000  1.2000  1.2000  1.2000  1.2000  1.2000  0.2612  0.2243  0.2397  0.2129  0.2127  0.2140  0.2440  0.2450  0.2459
 1975 155    24   0.0960  0.0960  0.1120  0.0940  0.1030  0.1030  0.1020  0.1020  0.1020  0.2300  0.2300  0.2500  0.2200  0.2200  0.2200  0.2500  0.2500  0.2500  0.4400  0.4400  0.4400  0.4400  0.4400  0.4400  0.4400  0.4400  0.4400  1.2000  1.2000  1.2000  1.2000  1.2000  1.2000  1.2000  1.2000  1.2000  0.2267  0.2236  0.2377  0.2108  0.2110  0.2126  0.2426  0.2438  0.2449
 1975 156    25   0.0960  0.0960  0.1120  0.0940  0.1030  0.1030  0.1020  0.1020  0.1020  0.2300  0.2300  0.2500  0.2200  0.2200  0.2200  0.2500  0.2500  0.2500  0.4400  0.4400  0.4400  0.4400  0.4400  0.4400  0.4400  0.4400  0.4400  1.2000  1.2000  1.2000  1.2000  1.2000  1.2000  1.2000  1.2000  1.2000  0.2297  0.2222  0.2340  0.2072  0.2082  0.2102  0.2402  0.2418  0.2431
 1975 157    26   0.0960  0.0960  0.1120  0.0940  0.1030  0.1030  0.1020  0.1020  0.1020  0.2300  0.2300  0.2500  0.2200  0.2200  0.2200  0.2500  0.2500  0.2500  0.4400  0.4400  0.4400  0.4400  0.4400  0.4400  0.4400  0.4400  0.4400  1.2000  1.2000  1.2000  1.2000  1.2000  1.2000  1.2000  1.2000  1.2000  0.2242  0.2216  0.2283  0.2037  0.2054  0.2079  0.2378  0.2398  0.2414
 1975 158    27   0.0960  0.0960  0.1120  0.0940  0.1030  0.1030  0.1020  0.1020  0.1020  0.2300  0.2300  0.2500  0.2200  0.2200  0.2200  0.2500  0.2500  0.2500  0.4400  0.4400  0.4400  0.4400  0.4400  0.4400  0.4400  0.4400  0.4400  1.2000  1.2000  1.2000  1.2000  1.2000  1.2000  1.2000  1.2000  1.2000  0.2035  0.2192  0.2279  0.2036  0.2054  0.2078  0.2378  0.2398  0.2414
 1975 159    28   0.0960  0.0960  0.1120  0.0940  0.1030  0.1030  0.1020  0.1020  0.1020  0.2300  0.2300  0.2500  0.2200  0.2200  0.2200  0.2500  0.2500  0.2500  0.4400  0.4400  0.4400  0.4400  0.4400  0.4400  0.4400  0.4400  0.4400  1.2000  1.2000  1.2000  1.2000  1.2000  1.2000  1.2000  1.2000  1.2000  0.1845  0.2167  0.2274  0.2035  0.2054  0.2078  0.2378  0.2397  0.2414
 1975 160    29   0.0960  0.0960  0.1120  0.0940  0.1030  0.1030  0.1020  0.1020  0.1020  0.2300  0.2300  0.2500  0.2200  0.2200  0.2200  0.2500  0.2500  0.2500  0.4400  0.4400  0.4400  0.4400  0.4400  0.4400  0.4400  0.4400  0.4400  1.2000  1.2000  1.2000  1.2000  1.2000  1.2000  1.2000  1.2000  1.2000  0.1668  0.2140  0.2268  0.2035  0.2053  0.2078  0.2378  0.2397  0.2414
 1975 161    30   0.0960  0.0960  0.1120  0.0940  0.1030  0.1030  0.1020  0.1020  0.1020  0.2300  0.2300  0.2500  0.2200  0.2200  0.2200  0.2500  0.2500  0.2500  0.4400  0.4400  0.4400  0.4400  0.4400  0.4400  0.4400  0.4400  0.4400  1.2000  1.2000  1.2000  1.2000  1.2000  1.2000  1.2000  1.2000  1.2000  0.1504  0.2112  0.2261  0.2034  0.2053  0.2078  0.2378  0.2397  0.2414
 1975 162    31   0.0960  0.0960  0.1120  0.0940  0.1030  0.1030  0.1020  0.1020  0.1020  0.2300  0.2300  0.2500  0.2200  0.2200  0.2200  0.2500  0.2500  0.2500  0.4400  0.4400  0.4400  0.4400  0.4400  0.4400  0.4400  0.4400  0.4400  1.2000  1.2000  1.2000  1.2000  1.2000  1.2000  1.2000  1.2000  1.2000  0.1344  0.2078  0.2250  0.2033  0.2052  0.2078  0.2377  0.2397  0.2414
 1975 163    32   0.0960  0.0960  0.1120  0.0940  0.1030  0.1030  0.1020  0.1020  0.1020  0.2300  0.2300  0.2500  0.2200  0.2200  0.2200  0.2500  0.2500  0.2500  0.4400  0.4400  0.4400  0.4400  0.4400  0.4400  0.4400  0.4400  0.4400  1.2000  1.2000  1.2000  1.2000  1.2000  1.2000  1.2000  1.2000  1.2000  0.1242  0.2050  0.2240  0.2033  0.2052  0.2077  0.2377  0.2397  0.2414
 1975 164    33   0.0960  0.0960  0.1120  0.0940  0.1030  0.1030  0.1020  0.1020  0.1020  0.2300  0.2300  0.2500  0.2200  0.2200  0.2200  0.2500  0.2500  0.2500  0.4400  0.4400  0.4400  0.4400  0.4400  0.4400  0.4400  0.4400  0.4400  1.2000  1.2000  1.2000  1.2000  1.2000  1.2000  1.2000  1.2000  1.2000  0.1593  0.2021  0.2229  0.2032  0.2052  0.2077  0.2377  0.2397  0.2414
 1975 165    34   0.0960  0.0960  0.1120  0.0940  0.1030  0.1030  0.1020  0.1020  0.1020  0.2300  0.2300  0.2500  0.2200  0.2200  0.2200  0.2500  0.2500  0.2500  0.4400  0.4400  0.4400  0.4400  0.4400  0.4400  0.4400  0.4400  0.4400  1.2000  1.2000  1.2000  1.2000  1.2000  1.2000  1.2000  1.2000  1.2000  0.2137  0.1998  0.2221  0.2031  0.2051  0.2077  0.2377  0.2397  0.2414
 1975 166    35   0.0960  0.0960  0.1120  0.0940  0.1030  0.1030  0.1020  0.1020  0.1020  0.2300  0.2300  0.2500  0.2200  0.2200  0.2200  0.2500  0.2500  0.2500  0.4400  0.4400  0.4400  0.4400  0.4400  0.4400  0.4400  0.4400  0.4400  1.2000  1.2000  1.2000  1.2000  1.2000  1.2000  1.2000  1.2000  1.2000  0.1931  0.1970  0.2209  0.2029  0.2051  0.2077  0.2377  0.2397  0.2414
 1975 167    36   0.0960  0.0960  0.1120  0.0940  0.1030  0.1030  0.1020  0.1020  0.1020  0.2300  0.2300  0.2500  0.2200  0.2200  0.2200  0.2500  0.2500  0.2500  0.4400  0.4400  0.4400  0.4400  0.4400  0.4400  0.4400  0.4400  0.4400  1.2000  1.2000  1.2000  1.2000  1.2000  1.2000  1.2000  1.2000  1.2000  0.1741  0.1941  0.2196  0.2027  0.2051  0.2077  0.2377  0.2397  0.2414
 1975 168    37   0.0960  0.0960  0.1120  0.0940  0.1030  0.1030  0.1020  0.1020  0.1020  0.2300  0.2300  0.2500  0.2200  0.2200  0.2200  0.2500  0.2500  0.2500  0.4400  0.4400  0.4400  0.4400  0.4400  0.4400  0.4400  0.4400  0.4400  1.2000  1.2000  1.2000  1.2000  1.2000  1.2000  1.2000  1.2000  1.2000  0.2164  0.1938  0.2185  0.2025  0.2050  0.2076  0.2376  0.2396  0.2414
 1975 169    38   0.0960  0.0960  0.1120  0.0940  0.1030  0.1030  0.1020  0.1020  0.1020  0.2300  0.2300  0.2500  0.2200  0.2200  0.2200  0.2500  0.2500  0.2500  0.4400  0.4400  0.4400  0.4400  0.4400  0.4400  0.4400  0.4400  0.4400  1.2000  1.2000  1.2000  1.2000  1.2000  1.2000  1.2000  1.2000  1.2000  0.2165  0.1944  0.2169  0.2022  0.2050  0.2076  0.2376  0.2396  0.2413
 1975 170    39   0.0960  0.0960  0.1120  0.0940  0.1030  0.1030  0.1020  0.1020  0.1020  0.2300  0.2300  0.2500  0.2200  0.2200  0.2200  0.2500  0.2500  0.2500  0.4400  0.4400  0.4400  0.4400  0.4400  0.4400  0.4400  0.4400  0.4400  1.2000  1.2000  1.2000  1.2000  1.2000  1.2000  1.2000  1.2000  1.2000  0.3226  0.2736  0.2468  0.2000  0.2034  0.2063  0.2363  0.2385  0.2404
 1975 171    40   0.0960  0.0960  0.1120  0.0940  0.1030  0.1030  0.1020  0.1020  0.1020  0.2300  0.2300  0.2500  0.2200  0.2200  0.2200  0.2500  0.2500  0.2500  0.4400  0.4400  0.4400  0.4400  0.4400  0.4400  0.4400  0.4400  0.4400  1.2000  1.2000  1.2000  1.2000  1.2000  1.2000  1.2000  1.2000  1.2000  0.2710  0.2568  0.2556  0.2078  0.2021  0.2051  0.2351  0.2375  0.2395
 1975 172    41   0.0960  0.0960  0.1120  0.0940  0.1030  0.1030  0.1020  0.1020  0.1020  0.2300  0.2300  0.2500  0.2200  0.2200  0.2200  0.2500  0.2500  0.2500  0.4400  0.4400  0.4400  0.4400  0.4400  0.4400  0.4400  0.4400  0.4400  1.2000  1.2000  1.2000  1.2000  1.2000  1.2000  1.2000  1.2000  1.2000  0.2196  0.2312  0.2454  0.2162  0.2061  0.2032  0.2331  0.2358  0.2381
 1975 173    42   0.0960  0.0960  0.1120  0.0940  0.1030  0.1030  0.1020  0.1020  0.1020  0.2300  0.2300  0.2500  0.2200  0.2200  0.2200  0.2500  0.2500  0.2500  0.4400  0.4400  0.4400  0.4400  0.4400  0.4400  0.4400  0.4400  0.4400  1.2000  1.2000  1.2000  1.2000  1.2000  1.2000  1.2000  1.2000  1.2000  0.2060  0.2212  0.2392  0.2129  0.2041  0.2015  0.2314  0.2343  0.2369
 1975 174    43   0.0960  0.0960  0.1120  0.0940  0.1030  0.1030  0.1020  0.1020  0.1020  0.2300  0.2300  0.2500  0.2200  0.2200  0.2200  0.2500  0.2500  0.2500  0.4400  0.4400  0.4400  0.4400  0.4400  0.4400  0.4400  0.4400  0.4400  1.2000  1.2000  1.2000  1.2000  1.2000  1.2000  1.2000  1.2000  1.2000  0.1837  0.2166  0.2364  0.2118  0.2040  0.2015  0.2314  0.2343  0.2369
 1975 175    44   0.0960  0.0960  0.1120  0.0940  0.1030  0.1030  0.1020  0.1020  0.1020  0.2300  0.2300  0.2500  0.2200  0.2200  0.2200  0.2500  0.2500  0.2500  0.4400  0.4400  0.4400  0.4400  0.4400  0.4400  0.4400  0.4400  0.4400  1.2000  1.2000  1.2000  1.2000  1.2000  1.2000  1.2000  1.2000  1.2000  0.1722  0.2115  0.2331  0.2104  0.2038  0.2015  0.2314  0.2343  0.2369
 1975 176    45   0.0960  0.0960  0.1120  0.0940  0.1030  0.1030  0.1020  0.1020  0.1020  0.2300  0.2300  0.2500  0.2200  0.2200  0.2200  0.2500  0.2500  0.2500  0.4400  0.4400  0.4400  0.4400  0.4400  0.4400  0.4400  0.4400  0.4400  1.2000  1.2000  1.2000  1.2000  1.2000  1.2000  1.2000  1.2000  1.2000  0.3112  0.2327  0.2350  0.2068  0.2017  0.1999  0.2298  0.2329  0.2357
 1975 177    46   0.0960  0.0960  0.1120  0.0940  0.1030  0.1030  0.1020  0.1020  0.1020  0.2300  0.2300  0.2500  0.2200  0.2200  0.2200  0.2500  0.2500  0.2500  0.4400  0.4400  0.4400  0.4400  0.4400  0.4400  0.4400  0.4400  0.4400  1.2000  1.2000  1.2000  1.2000  1.2000  1.2000  1.2000  1.2000  1.2000  0.2779  0.2385  0.2408  0.2047  0.2005  0.1991  0.2289  0.2322  0.2351
 1975 178    47   0.0960  0.0960  0.1120  0.0940  0.1030  0.1030  0.1020  0.1020  0.1020  0.2300  0.2300  0.2500  0.2200  0.2200  0.2200  0.2500  0.2500  0.2500  0.4400  0.4400  0.4400  0.4400  0.4400  0.4400  0.4400  0.4400  0.4400  1.2000  1.2000  1.2000  1.2000  1.2000  1.2000  1.2000  1.2000  1.2000  0.2238  0.2220  0.2418  0.2019  0.1980  0.1974  0.2272  0.2307  0.2338
 1975 179    48   0.0960  0.0960  0.1120  0.0940  0.1030  0.1030  0.1020  0.1020  0.1020  0.2300  0.2300  0.2500  0.2200  0.2200  0.2200  0.2500  0.2500  0.2500  0.4400  0.4400  0.4400  0.4400  0.4400  0.4400  0.4400  0.4400  0.4400  1.2000  1.2000  1.2000  1.2000  1.2000  1.2000  1.2000  1.2000  1.2000  0.1983  0.2159  0.2374  0.1998  0.1972  0.1974  0.2272  0.2307  0.2338
 1975 180    49   0.0960  0.0960  0.1120  0.0940  0.1030  0.1030  0.1020  0.1020  0.1020  0.2300  0.2300  0.2500  0.2200  0.2200  0.2200  0.2500  0.2500  0.2500  0.4400  0.4400  0.4400  0.4400  0.4400  0.4400  0.4400  0.4400  0.4400  1.2000  1.2000  1.2000  1.2000  1.2000  1.2000  1.2000  1.2000  1.2000  0.1749  0.2097  0.2327  0.1974  0.1962  0.1973  0.2272  0.2307  0.2338
 1975 181    50   0.0960  0.0960  0.1120  0.0940  0.1030  0.1030  0.1020  0.1020  0.1020  0.2300  0.2300  0.2500  0.2200  0.2200  0.2200  0.2500  0.2500  0.2500  0.4400  0.4400  0.4400  0.4400  0.4400  0.4400  0.4400  0.4400  0.4400  1.2000  1.2000  1.2000  1.2000  1.2000  1.2000  1.2000  1.2000  1.2000  0.1533  0.2032  0.2276  0.1947  0.1949  0.1972  0.2272  0.2307  0.2338
 1975 182    51   0.0960  0.0960  0.1120  0.0940  0.1030  0.1030  0.1020  0.1020  0.1020  0.2300  0.2300  0.2500  0.2200  0.2200  0.2200  0.2500  0.2500  0.2500  0.4400  0.4400  0.4400  0.4400  0.4400  0.4400  0.4400  0.4400  0.4400  1.2000  1.2000  1.2000  1.2000  1.2000  1.2000  1.2000  1.2000  1.2000  0.1336  0.1967  0.2224  0.1918  0.1934  0.1970  0.2271  0.2307  0.2338
 1975 183    52   0.0960  0.0960  0.1120  0.0940  0.1030  0.1030  0.1020  0.1020  0.1020  0.2300  0.2300  0.2500  0.2200  0.2200  0.2200  0.2500  0.2500  0.2500  0.4400  0.4400  0.4400  0.4400  0.4400  0.4400  0.4400  0.4400  0.4400  1.2000  1.2000  1.2000  1.2000  1.2000  1.2000  1.2000  1.2000  1.2000  0.1218  0.1888  0.2157  0.1881  0.1913  0.1965  0.2271  0.2307  0.2338
 1975 184    53   0.0960  0.0960  0.1120  0.0940  0.1030  0.1030  0.1020  0.1020  0.1020  0.2300  0.2300  0.2500  0.2200  0.2200  0.2200  0.2500  0.2500  0.2500  0.4400  0.4400  0.4400  0.4400  0.4400  0.4400  0.4400  0.4400  0.4400  1.2000  1.2000  1.2000  1.2000  1.2000  1.2000  1.2000  1.2000  1.2000  0.1128  0.1816  0.2097  0.1845  0.1893  0.1960  0.2271  0.2307  0.2338
 1975 185    54   0.0960  0.0960  0.1120  0.0940  0.1030  0.1030  0.1020  0.1020  0.1020  0.2300  0.2300  0.2500  0.2200  0.2200  0.2200  0.2500  0.2500  0.2500  0.4400  0.4400  0.4400  0.4400  0.4400  0.4400  0.4400  0.4400  0.4400  1.2000  1.2000  1.2000  1.2000  1.2000  1.2000  1.2000  1.2000  1.2000  0.1297  0.1724  0.2018  0.1797  0.1864  0.1951  0.2271  0.2307  0.2338
 1975 186    55   0.0960  0.0960  0.1120  0.0940  0.1030  0.1030  0.1020  0.1020  0.1020  0.2300  0.2300  0.2500  0.2200  0.2200  0.2200  0.2500  0.2500  0.2500  0.4400  0.4400  0.4400  0.4400  0.4400  0.4400  0.4400  0.4400  0.4400  1.2000  1.2000  1.2000  1.2000  1.2000  1.2000  1.2000  1.2000  1.2000  0.1187  0.1630  0.1936  0.1746  0.1832  0.1940  0.2271  0.2306  0.2338
 1975 187    56   0.0960  0.0960  0.1120  0.0940  0.1030  0.1030  0.1020  0.1020  0.1020  0.2300  0.2300  0.2500  0.2200  0.2200  0.2200  0.2500  0.2500  0.2500  0.4400  0.4400  0.4400  0.4400  0.4400  0.4400  0.4400  0.4400  0.4400  1.2000  1.2000  1.2000  1.2000  1.2000  1.2000  1.2000  1.2000  1.2000  0.1729  0.1520  0.1837  0.1685  0.1792  0.1923  0.2270  0.2306  0.2337
 1975 188    57   0.0960  0.0960  0.1120  0.0940  0.1030  0.1030  0.1020  0.1020  0.1020  0.2300  0.2300  0.2500  0.2200  0.2200  0.2200  0.2500  0.2500  0.2500  0.4400  0.4400  0.4400  0.4400  0.4400  0.4400  0.4400  0.4400  0.4400  1.2000  1.2000  1.2000  1.2000  1.2000  1.2000  1.2000  1.2000  1.2000  0.1502  0.1447  0.1773  0.1644  0.1764  0.1911  0.2269  0.2306  0.2337
 1975 189    58   0.0960  0.0960  0.1120  0.0940  0.1030  0.1030  0.1020  0.1020  0.1020  0.2300  0.2300  0.2500  0.2200  0.2200  0.2200  0.2500  0.2500  0.2500  0.4400  0.4400  0.4400  0.4400  0.4400  0.4400  0.4400  0.4400  0.4400  1.2000  1.2000  1.2000  1.2000  1.2000  1.2000  1.2000  1.2000  1.2000  0.1276  0.1390  0.1696  0.1595  0.1731  0.1895  0.2267  0.2306  0.2337
 1975 190    59   0.0960  0.0960  0.1120  0.0940  0.1030  0.1030  0.1020  0.1020  0.1020  0.2300  0.2300  0.2500  0.2200  0.2200  0.2200  0.2500  0.2500  0.2500  0.4400  0.4400  0.4400  0.4400  0.4400  0.4400  0.4400  0.4400  0.4400  1.2000  1.2000  1.2000  1.2000  1.2000  1.2000  1.2000  1.2000  1.2000  0.1168  0.1345  0.1597  0.1530  0.1686  0.1872  0.2263  0.2306  0.2337
 1975 191    60   0.0960  0.0960  0.1120  0.0940  0.1030  0.1030  0.1020  0.1020  0.1020  0.2300  0.2300  0.2500  0.2200  0.2200  0.2200  0.2500  0.2500  0.2500  0.4400  0.4400  0.4400  0.4400  0.4400  0.4400  0.4400  0.4400  0.4400  1.2000  1.2000  1.2000  1.2000  1.2000  1.2000  1.2000  1.2000  1.2000  0.1079  0.1302  0.1526  0.1433  0.1619  0.1836  0.2256  0.2306  0.2337
 1975 192    61   0.0960  0.0960  0.1120  0.0940  0.1030  0.1030  0.1020  0.1020  0.1020  0.2300  0.2300  0.2500  0.2200  0.2200  0.2200  0.2500  0.2500  0.2500  0.4400  0.4400  0.4400  0.4400  0.4400  0.4400  0.4400  0.4400  0.4400  1.2000  1.2000  1.2000  1.2000  1.2000  1.2000  1.2000  1.2000  1.2000  0.1002  0.1264  0.1477  0.1348  0.1527  0.1786  0.2244  0.2306  0.2337
 1975 193    62   0.0960  0.0960  0.1120  0.0940  0.1030  0.1030  0.1020  0.1020  0.1020  0.2300  0.2300  0.2500  0.2200  0.2200  0.2200  0.2500  0.2500  0.2500  0.4400  0.4400  0.4400  0.4400  0.4400  0.4400  0.4400  0.4400  0.4400  1.2000  1.2000  1.2000  1.2000  1.2000  1.2000  1.2000  1.2000  1.2000  0.0939  0.1233  0.1441  0.1305  0.1464  0.1725  0.2228  0.2306  0.2337
 1975 194    63   0.0960  0.0960  0.1120  0.0940  0.1030  0.1030  0.1020  0.1020  0.1020  0.2300  0.2300  0.2500  0.2200  0.2200  0.2200  0.2500  0.2500  0.2500  0.4400  0.4400  0.4400  0.4400  0.4400  0.4400  0.4400  0.4400  0.4400  1.2000  1.2000  1.2000  1.2000  1.2000  1.2000  1.2000  1.2000  1.2000  0.0881  0.1208  0.1414  0.1275  0.1428  0.1661  0.2210  0.2305  0.2337
 1975 195    64   0.0960  0.0960  0.1120  0.0940  0.1030  0.1030  0.1020  0.1020  0.1020  0.2300  0.2300  0.2500  0.2200  0.2200  0.2200  0.2500  0.2500  0.2500  0.4400  0.4400  0.4400  0.4400  0.4400  0.4400  0.4400  0.4400  0.4400  1.2000  1.2000  1.2000  1.2000  1.2000  1.2000  1.2000  1.2000  1.2000  0.0828  0.1187  0.1392  0.1252  0.1401  0.1595  0.2190  0.2305  0.2337
 1975 196    65   0.0960  0.0960  0.1120  0.0940  0.1030  0.1030  0.1020  0.1020  0.1020  0.2300  0.2300  0.2500  0.2200  0.2200  0.2200  0.2500  0.2500  0.2500  0.4400  0.4400  0.4400  0.4400  0.4400  0.4400  0.4400  0.4400  0.4400  1.2000  1.2000  1.2000  1.2000  1.2000  1.2000  1.2000  1.2000  1.2000  0.0779  0.1169  0.1374  0.1233  0.1380  0.1526  0.2168  0.2305  0.2337
 1975 197    66   0.0960  0.0960  0.1120  0.0940  0.1030  0.1030  0.1020  0.1020  0.1020  0.2300  0.2300  0.2500  0.2200  0.2200  0.2200  0.2500  0.2500  0.2500  0.4400  0.4400  0.4400  0.4400  0.4400  0.4400  0.4400  0.4400  0.4400  1.2000  1.2000  1.2000  1.2000  1.2000  1.2000  1.2000  1.2000  1.2000  0.1499  0.1153  0.1358  0.1217  0.1362  0.1487  0.2145  0.2304  0.2337
 1975 198    67   0.0960  0.0960  0.1120  0.0940  0.1030  0.1030  0.1020  0.1020  0.1020  0.2300  0.2300  0.2500  0.2200  0.2200  0.2200  0.2500  0.2500  0.2500  0.4400  0.4400  0.4400  0.4400  0.4400  0.4400  0.4400  0.4400  0.4400  1.2000  1.2000  1.2000  1.2000  1.2000  1.2000  1.2000  1.2000  1.2000  0.1036  0.1138  0.1344  0.1203  0.1347  0.1459  0.2121  0.2303  0.2337
 1975 199    68   0.0960  0.0960  0.1120  0.0940  0.1030  0.1030  0.1020  0.1020  0.1020  0.2300  0.2300  0.2500  0.2200  0.2200  0.2200  0.2500  0.2500  0.2500  0.4400  0.4400  0.4400  0.4400  0.4400  0.4400  0.4400  0.4400  0.4400  1.2000  1.2000  1.2000  1.2000  1.2000  1.2000  1.2000  1.2000  1.2000  0.0964  0.1125  0.1331  0.1191  0.1333  0.1436  0.2095  0.2301  0.2337
 1975 200    69   0.0960  0.0960  0.1120  0.0940  0.1030  0.1030  0.1020  0.1020  0.1020  0.2300  0.2300  0.2500  0.2200  0.2200  0.2200  0.2500  0.2500  0.2500  0.4400  0.4400  0.4400  0.4400  0.4400  0.4400  0.4400  0.4400  0.4400  1.2000  1.2000  1.2000  1.2000  1.2000  1.2000  1.2000  1.2000  1.2000  0.0904  0.1113  0.1319  0.1179  0.1321  0.1417  0.2067  0.2299  0.2337
 1975 201    70   0.0960  0.0960  0.1120  0.0940  0.1030  0.1030  0.1020  0.1020  0.1020  0.2300  0.2300  0.2500  0.2200  0.2200  0.2200  0.2500  0.2500  0.2500  0.4400  0.4400  0.4400  0.4400  0.4400  0.4400  0.4400  0.4400  0.4400  1.2000  1.2000  1.2000  1.2000  1.2000  1.2000  1.2000  1.2000  1.2000  0.0849  0.1101  0.1309  0.1169  0.1310  0.1401  0.2039  0.2297  0.2336
 1975 202    71   0.0960  0.0960  0.1120  0.0940  0.1030  0.1030  0.1020  0.1020  0.1020  0.2300  0.2300  0.2500  0.2200  0.2200  0.2200  0.2500  0.2500  0.2500  0.4400  0.4400  0.4400  0.4400  0.4400  0.4400  0.4400  0.4400  0.4400  1.2000  1.2000  1.2000  1.2000  1.2000  1.2000  1.2000  1.2000  1.2000  0.0799  0.1090  0.1299  0.1159  0.1299  0.1387  0.2009  0.2294  0.2336
 1975 203    72   0.0960  0.0960  0.1120  0.0940  0.1030  0.1030  0.1020  0.1020  0.1020  0.2300  0.2300  0.2500  0.2200  0.2200  0.2200  0.2500  0.2500  0.2500  0.4400  0.4400  0.4400  0.4400  0.4400  0.4400  0.4400  0.4400  0.4400  1.2000  1.2000  1.2000  1.2000  1.2000  1.2000  1.2000  1.2000  1.2000  0.0753  0.1080  0.1290  0.1151  0.1290  0.1375  0.1979  0.2291  0.2336
 1975 204    73   0.0960  0.0960  0.1120  0.0940  0.1030  0.1030  0.1020  0.1020  0.1020  0.2300  0.2300  0.2500  0.2200  0.2200  0.2200  0.2500  0.2500  0.2500  0.4400  0.4400  0.4400  0.4400  0.4400  0.4400  0.4400  0.4400  0.4400  1.2000  1.2000  1.2000  1.2000  1.2000  1.2000  1.2000  1.2000  1.2000  0.0712  0.1071  0.1281  0.1142  0.1281  0.1363  0.1948  0.2288  0.2336
 1975 205    74   0.0960  0.0960  0.1120  0.0940  0.1030  0.1030  0.1020  0.1020  0.1020  0.2300  0.2300  0.2500  0.2200  0.2200  0.2200  0.2500  0.2500  0.2500  0.4400  0.4400  0.4400  0.4400  0.4400  0.4400  0.4400  0.4400  0.4400  1.2000  1.2000  1.2000  1.2000  1.2000  1.2000  1.2000  1.2000  1.2000  0.0674  0.1061  0.1273  0.1135  0.1273  0.1353  0.1915  0.2284  0.2336
 1975 206    75   0.0960  0.0960  0.1120  0.0940  0.1030  0.1030  0.1020  0.1020  0.1020  0.2300  0.2300  0.2500  0.2200  0.2200  0.2200  0.2500  0.2500  0.2500  0.4400  0.4400  0.4400  0.4400  0.4400  0.4400  0.4400  0.4400  0.4400  1.2000  1.2000  1.2000  1.2000  1.2000  1.2000  1.2000  1.2000  1.2000  0.0639  0.1053  0.1266  0.1127  0.1265  0.1343  0.1883  0.2279  0.2336
 1975 207    76   0.0960  0.0960  0.1120  0.0940  0.1030  0.1030  0.1020  0.1020  0.1020  0.2300  0.2300  0.2500  0.2200  0.2200  0.2200  0.2500  0.2500  0.2500  0.4400  0.4400  0.4400  0.4400  0.4400  0.4400  0.4400  0.4400  0.4400  1.2000  1.2000  1.2000  1.2000  1.2000  1.2000  1.2000  1.2000  1.2000  0.0608  0.1044  0.1259  0.1121  0.1258  0.1334  0.1849  0.2275  0.2336
 1975 208    77   0.0960  0.0960  0.1120  0.0940  0.1030  0.1030  0.1020  0.1020  0.1020  0.2300  0.2300  0.2500  0.2200  0.2200  0.2200  0.2500  0.2500  0.2500  0.4400  0.4400  0.4400  0.4400  0.4400  0.4400  0.4400  0.4400  0.4400  1.2000  1.2000  1.2000  1.2000  1.2000  1.2000  1.2000  1.2000  1.2000  0.0579  0.1036  0.1252  0.1114  0.1251  0.1326  0.1815  0.2270  0.2336
 1975 209    78   0.0960  0.0960  0.1120  0.0940  0.1030  0.1030  0.1020  0.1020  0.1020  0.2300  0.2300  0.2500  0.2200  0.2200  0.2200  0.2500  0.2500  0.2500  0.4400  0.4400  0.4400  0.4400  0.4400  0.4400  0.4400  0.4400  0.4400  1.2000  1.2000  1.2000  1.2000  1.2000  1.2000  1.2000  1.2000  1.2000  0.0553  0.1029  0.1245  0.1108  0.1245  0.1318  0.1781  0.2265  0.2336
 1975 210    79   0.0960  0.0960  0.1120  0.0940  0.1030  0.1030  0.1020  0.1020  0.1020  0.2300  0.2300  0.2500  0.2200  0.2200  0.2200  0.2500  0.2500  0.2500  0.4400  0.4400  0.4400  0.4400  0.4400  0.4400  0.4400  0.4400  0.4400  1.2000  1.2000  1.2000  1.2000  1.2000  1.2000  1.2000  1.2000  1.2000  0.1446  0.1021  0.1239  0.1103  0.1239  0.1311  0.1747  0.2260  0.2336
 1975 211    80   0.0960  0.0960  0.1120  0.0940  0.1030  0.1030  0.1020  0.1020  0.1020  0.2300  0.2300  0.2500  0.2200  0.2200  0.2200  0.2500  0.2500  0.2500  0.4400  0.4400  0.4400  0.4400  0.4400  0.4400  0.4400  0.4400  0.4400  1.2000  1.2000  1.2000  1.2000  1.2000  1.2000  1.2000  1.2000  1.2000  0.1341  0.1015  0.1236  0.1099  0.1236  0.1307  0.1728  0.2257  0.2336
 1975 212    81   0.0960  0.0960  0.1120  0.0940  0.1030  0.1030  0.1020  0.1020  0.1020  0.2300  0.2300  0.2500  0.2200  0.2200  0.2200  0.2500  0.2500  0.2500  0.4400  0.4400  0.4400  0.4400  0.4400  0.4400  0.4400  0.4400  0.4400  1.2000  1.2000  1.2000  1.2000  1.2000  1.2000  1.2000  1.2000  1.2000  0.3273  0.2169  0.1222  0.1089  0.1226  0.1298  0.1698  0.2245  0.2329
 1975 213    82   0.0960  0.0960  0.1120  0.0940  0.1030  0.1030  0.1020  0.1020  0.1020  0.2300  0.2300  0.2500  0.2200  0.2200  0.2200  0.2500  0.2500  0.2500  0.4400  0.4400  0.4400  0.4400  0.4400  0.4400  0.4400  0.4400  0.4400  1.2000  1.2000  1.2000  1.2000  1.2000  1.2000  1.2000  1.2000  1.2000  0.2655  0.2260  0.1244  0.1082  0.1219  0.1291  0.1686  0.2236  0.2322
 1975 214    83   0.0960  0.0960  0.1120  0.0940  0.1030  0.1030  0.1020  0.1020  0.1020  0.2300  0.2300  0.2500  0.2200  0.2200  0.2200  0.2500  0.2500  0.2500  0.4400  0.4400  0.4400  0.4400  0.4400  0.4400  0.4400  0.4400  0.4400  1.2000  1.2000  1.2000  1.2000  1.2000  1.2000  1.2000  1.2000  1.2000  0.2156  0.2156  0.1238  0.1067  0.1206  0.1279  0.1661  0.2219  0.2308
 1975 215    84   0.0960  0.0960  0.1120  0.0940  0.1030  0.1030  0.1020  0.1020  0.1020  0.2300  0.2300  0.2500  0.2200  0.2200  0.2200  0.2500  0.2500  0.2500  0.4400  0.4400  0.4400  0.4400  0.4400  0.4400  0.4400  0.4400  0.4400  1.2000  1.2000  1.2000  1.2000  1.2000  1.2000  1.2000  1.2000  1.2000  0.1970  0.2091  0.1236  0.1066  0.1205  0.1277  0.1654  0.2218  0.2308
 1975 216    85   0.0960  0.0960  0.1120  0.0940  0.1030  0.1030  0.1020  0.1020  0.1020  0.2300  0.2300  0.2500  0.2200  0.2200  0.2200  0.2500  0.2500  0.2500  0.4400  0.4400  0.4400  0.4400  0.4400  0.4400  0.4400  0.4400  0.4400  1.2000  1.2000  1.2000  1.2000  1.2000  1.2000  1.2000  1.2000  1.2000  0.1736  0.2022  0.1234  0.1065  0.1204  0.1276  0.1647  0.2216  0.2308
 1975 217    86   0.0960  0.0960  0.1120  0.0940  0.1030  0.1030  0.1020  0.1020  0.1020  0.2300  0.2300  0.2500  0.2200  0.2200  0.2200  0.2500  0.2500  0.2500  0.4400  0.4400  0.4400  0.4400  0.4400  0.4400  0.4400  0.4400  0.4400  1.2000  1.2000  1.2000  1.2000  1.2000  1.2000  1.2000  1.2000  1.2000  0.1482  0.1925  0.1232  0.1063  0.1202  0.1275  0.1636  0.2214  0.2308
 1975 218    87   0.0960  0.0960  0.1120  0.0940  0.1030  0.1030  0.1020  0.1020  0.1020  0.2300  0.2300  0.2500  0.2200  0.2200  0.2200  0.2500  0.2500  0.2500  0.4400  0.4400  0.4400  0.4400  0.4400  0.4400  0.4400  0.4400  0.4400  1.2000  1.2000  1.2000  1.2000  1.2000  1.2000  1.2000  1.2000  1.2000  0.1262  0.1834  0.1229  0.1062  0.1201  0.1273  0.1625  0.2213  0.2308
 1975 219    88   0.0960  0.0960  0.1120  0.0940  0.1030  0.1030  0.1020  0.1020  0.1020  0.2300  0.2300  0.2500  0.2200  0.2200  0.2200  0.2500  0.2500  0.2500  0.4400  0.4400  0.4400  0.4400  0.4400  0.4400  0.4400  0.4400  0.4400  1.2000  1.2000  1.2000  1.2000  1.2000  1.2000  1.2000  1.2000  1.2000  0.2634  0.1989  0.1228  0.1061  0.1200  0.1272  0.1620  0.2212  0.2308
 1975 220    89   0.0960  0.0960  0.1120  0.0940  0.1030  0.1030  0.1020  0.1020  0.1020  0.2300  0.2300  0.2500  0.2200  0.2200  0.2200  0.2500  0.2500  0.2500  0.4400  0.4400  0.4400  0.4400  0.4400  0.4400  0.4400  0.4400  0.4400  1.2000  1.2000  1.2000  1.2000  1.2000  1.2000  1.2000  1.2000  1.2000  0.2103  0.1936  0.1201  0.1045  0.1185  0.1258  0.1598  0.2192  0.2291
 1975 221    90   0.0960  0.0960  0.1120  0.0940  0.1030  0.1030  0.1020  0.1020  0.1020  0.2300  0.2300  0.2500  0.2200  0.2200  0.2200  0.2500  0.2500  0.2500  0.4400  0.4400  0.4400  0.4400  0.4400  0.4400  0.4400  0.4400  0.4400  1.2000  1.2000  1.2000  1.2000  1.2000  1.2000  1.2000  1.2000  1.2000  0.1884  0.1886  0.1199  0.1044  0.1184  0.1258  0.1593  0.2191  0.2291
 1975 222    91   0.0960  0.0960  0.1120  0.0940  0.1030  0.1030  0.1020  0.1020  0.1020  0.2300  0.2300  0.2500  0.2200  0.2200  0.2200  0.2500  0.2500  0.2500  0.4400  0.4400  0.4400  0.4400  0.4400  0.4400  0.4400  0.4400  0.4400  1.2000  1.2000  1.2000  1.2000  1.2000  1.2000  1.2000  1.2000  1.2000  0.1703  0.1850  0.1198  0.1043  0.1184  0.1257  0.1590  0.2190  0.2291
 1975 223    92   0.0960  0.0960  0.1120  0.0940  0.1030  0.1030  0.1020  0.1020  0.1020  0.2300  0.2300  0.2500  0.2200  0.2200  0.2200  0.2500  0.2500  0.2500  0.4400  0.4400  0.4400  0.4400  0.4400  0.4400  0.4400  0.4400  0.4400  1.2000  1.2000  1.2000  1.2000  1.2000  1.2000  1.2000  1.2000  1.2000  0.1932  0.1822  0.1197  0.1043  0.1183  0.1257  0.1587  0.2190  0.2291
 1975 224    93   0.0960  0.0960  0.1120  0.0940  0.1030  0.1030  0.1020  0.1020  0.1020  0.2300  0.2300  0.2500  0.2200  0.2200  0.2200  0.2500  0.2500  0.2500  0.4400  0.4400  0.4400  0.4400  0.4400  0.4400  0.4400  0.4400  0.4400  1.2000  1.2000  1.2000  1.2000  1.2000  1.2000  1.2000  1.2000  1.2000  0.1758  0.1795  0.1196  0.1042  0.1183  0.1256  0.1585  0.2189  0.2291
 1975 225    94   0.0960  0.0960  0.1120  0.0940  0.1030  0.1030  0.1020  0.1020  0.1020  0.2300  0.2300  0.2500  0.2200  0.2200  0.2200  0.2500  0.2500  0.2500  0.4400  0.4400  0.4400  0.4400  0.4400  0.4400  0.4400  0.4400  0.4400  1.2000  1.2000  1.2000  1.2000  1.2000  1.2000  1.2000  1.2000  1.2000  0.1614  0.1778  0.1195  0.1042  0.1183  0.1256  0.1583  0.2189  0.2291
 1975 226    95   0.0960  0.0960  0.1120  0.0940  0.1030  0.1030  0.1020  0.1020  0.1020  0.2300  0.2300  0.2500  0.2200  0.2200  0.2200  0.2500  0.2500  0.2500  0.4400  0.4400  0.4400  0.4400  0.4400  0.4400  0.4400  0.4400  0.4400  1.2000  1.2000  1.2000  1.2000  1.2000  1.2000  1.2000  1.2000  1.2000  0.1493  0.1767  0.1194  0.1042  0.1183  0.1256  0.1583  0.2189  0.2291
 1975 227    96   0.0960  0.0960  0.1120  0.0940  0.1030  0.1030  0.1020  0.1020  0.1020  0.2300  0.2300  0.2500  0.2200  0.2200  0.2200  0.2500  0.2500  0.2500  0.4400  0.4400  0.4400  0.4400  0.4400  0.4400  0.4400  0.4400  0.4400  1.2000  1.2000  1.2000  1.2000  1.2000  1.2000  1.2000  1.2000  1.2000  0.1385  0.1759  0.1193  0.1041  0.1182  0.1256  0.1583  0.2188  0.2290
 1975 228    97   0.0960  0.0960  0.1120  0.0940  0.1030  0.1030  0.1020  0.1020  0.1020  0.2300  0.2300  0.2500  0.2200  0.2200  0.2200  0.2500  0.2500  0.2500  0.4400  0.4400  0.4400  0.4400  0.4400  0.4400  0.4400  0.4400  0.4400  1.2000  1.2000  1.2000  1.2000  1.2000  1.2000  1.2000  1.2000  1.2000  0.1287  0.1751  0.1192  0.1041  0.1182  0.1256  0.1583  0.2188  0.2290
 1975 229    98   0.0960  0.0960  0.1120  0.0940  0.1030  0.1030  0.1020  0.1020  0.1020  0.2300  0.2300  0.2500  0.2200  0.2200  0.2200  0.2500  0.2500  0.2500  0.4400  0.4400  0.4400  0.4400  0.4400  0.4400  0.4400  0.4400  0.4400  1.2000  1.2000  1.2000  1.2000  1.2000  1.2000  1.2000  1.2000  1.2000  0.2190  0.1753  0.1191  0.1041  0.1182  0.1256  0.1583  0.2188  0.2290
 1975 230    99   0.0960  0.0960  0.1120  0.0940  0.1030  0.1030  0.1020  0.1020  0.1020  0.2300  0.2300  0.2500  0.2200  0.2200  0.2200  0.2500  0.2500  0.2500  0.4400  0.4400  0.4400  0.4400  0.4400  0.4400  0.4400  0.4400  0.4400  1.2000  1.2000  1.2000  1.2000  1.2000  1.2000  1.2000  1.2000  1.2000  0.2020  0.1745  0.1190  0.1040  0.1182  0.1256  0.1582  0.2188  0.2290
 1975 231   100   0.0960  0.0960  0.1120  0.0940  0.1030  0.1030  0.1020  0.1020  0.1020  0.2300  0.2300  0.2500  0.2200  0.2200  0.2200  0.2500  0.2500  0.2500  0.4400  0.4400  0.4400  0.4400  0.4400  0.4400  0.4400  0.4400  0.4400  1.2000  1.2000  1.2000  1.2000  1.2000  1.2000  1.2000  1.2000  1.2000  0.2763  0.1968  0.1169  0.1027  0.1170  0.1245  0.1570  0.2173  0.2277
 1975 232   101   0.0960  0.0960  0.1120  0.0940  0.1030  0.1030  0.1020  0.1020  0.1020  0.2300  0.2300  0.2500  0.2200  0.2200  0.2200  0.2500  0.2500  0.2500  0.4400  0.4400  0.4400  0.4400  0.4400  0.4400  0.4400  0.4400  0.4400  1.2000  1.2000  1.2000  1.2000  1.2000  1.2000  1.2000  1.2000  1.2000  0.2759  0.2200  0.1148  0.1015  0.1158  0.1234  0.1557  0.2157  0.2263
 1975 233   102   0.0960  0.0960  0.1120  0.0940  0.1030  0.1030  0.1020  0.1020  0.1020  0.2300  0.2300  0.2500  0.2200  0.2200  0.2200  0.2500  0.2500  0.2500  0.4400  0.4400  0.4400  0.4400  0.4400  0.4400  0.4400  0.4400  0.4400  1.2000  1.2000  1.2000  1.2000  1.2000  1.2000  1.2000  1.2000  1.2000  0.3069  0.2856  0.1568  0.0999  0.1145  0.1222  0.1543  0.2138  0.2246

*DSSAT Cropping System Model Ver. 4.8.5.021 -develop  JUL 14, 2025 14:08:26
!                    0-5    5-15   15-30   30-45   45-60   60-75   75-90  90-120 120-150     0-5    5-15   15-30   30-45   45-60   60-75   75-90  90-120 120-150     0-5    5-15   15-30   30-45   45-60   60-75   75-90  90-120 120-150     0-5    5-15   15-30   30-45   45-60   60-75   75-90  90-120 120-150     0-5    5-15   15-30   30-45   45-60   60-75   75-90  90-120 120-150
[...]
 1975 181    50   0.0960  0.0960  0.1120  0.0940  0.1030  0.1030  0.1020  0.1020  0.1020  0.2300  0.2300  0.2500  0.2200  0.2200  0.2200  0.2500  0.2500  0.2500  0.4400  0.4400  0.4400  0.4400  0.4400  0.4400  0.4400  0.4400  0.4400  1.2000  1.2000  1.2000  1.2000  1.2000  1.2000  1.2000  1.2000  1.2000  0.1710  0.2104  0.2318  0.2086  0.2137  0.2170  0.2293  0.2325  0.2353
 1975 182    51   0.0960  0.0960  0.1120  0.0940  0.1030  0.1030  0.1020  0.1020  0.1020  0.2300  0.2300  0.2500  0.2200  0.2200  0.2200  0.2500  0.2500  0.2500  0.4400  0.4400  0.4400  0.4400  0.4400  0.4400  0.4400  0.4400  0.4400  1.2000  1.2000  1.2000  1.2000  1.2000  1.2000  1.2000  1.2000  1.2000  0.1521  0.2051  0.2275  0.2060  0.2122  0.2168  0.2292  0.2325  0.2353
 1975 183    52   0.0960  0.0960  0.1120  0.0940  0.1030  0.1030  0.1020  0.1020  0.1020  0.2300  0.2300  0.2500  0.2200  0.2200  0.2200  0.2500  0.2500  0.2500  0.4400  0.4400  0.4400  0.4400  0.4400  0.4400  0.4400  0.4400  0.4400  1.2000  1.2000  1.2000  1.2000  1.2000  1.2000  1.2000  1.2000  1.2000  0.1342  0.1991  0.2226  0.2030  0.2104  0.2164  0.2292  0.2325  0.2353
 1975 184    53   0.0960  0.0960  0.1120  0.0940  0.1030  0.1030  0.1020  0.1020  0.1020  0.2300  0.2300  0.2500  0.2200  0.2200  0.2200  0.2500  0.2500  0.2500  0.4400  0.4400  0.4400  0.4400  0.4400  0.4400  0.4400  0.4400  0.4400  1.2000  1.2000  1.2000  1.2000  1.2000  1.2000  1.2000  1.2000  1.2000  0.1232  0.1929  0.2175  0.1998  0.2084  0.2159  0.2292  0.2325  0.2353
 1975 185    54   0.0960  0.0960  0.1120  0.0940  0.1030  0.1030  0.1020  0.1020  0.1020  0.2300  0.2300  0.2500  0.2200  0.2200  0.2200  0.2500  0.2500  0.2500  0.4400  0.4400  0.4400  0.4400  0.4400  0.4400  0.4400  0.4400  0.4400  1.2000  1.2000  1.2000  1.2000  1.2000  1.2000  1.2000  1.2000  1.2000  0.1388  0.1851  0.2108  0.1955  0.2056  0.2150  0.2292  0.2324  0.2353
 1975 186    55   0.0960  0.0960  0.1120  0.0940  0.1030  0.1030  0.1020  0.1020  0.1020  0.2300  0.2300  0.2500  0.2200  0.2200  0.2200  0.2500  0.2500  0.2500  0.4400  0.4400  0.4400  0.4400  0.4400  0.4400  0.4400  0.4400  0.4400  1.2000  1.2000  1.2000  1.2000  1.2000  1.2000  1.2000  1.2000  1.2000  0.1256  0.1772  0.2040  0.1911  0.2026  0.2139  0.2292  0.2324  0.2353
 1975 187    56   0.0960  0.0960  0.1120  0.0940  0.1030  0.1030  0.1020  0.1020  0.1020  0.2300  0.2300  0.2500  0.2200  0.2200  0.2200  0.2500  0.2500  0.2500  0.4400  0.4400  0.4400  0.4400  0.4400  0.4400  0.4400  0.4400  0.4400  1.2000  1.2000  1.2000  1.2000  1.2000  1.2000  1.2000  1.2000  1.2000  0.1788  0.1678  0.1957  0.1856  0.1988  0.2122  0.2291  0.2324  0.2353
 1975 188    57   0.0960  0.0960  0.1120  0.0940  0.1030  0.1030  0.1020  0.1020  0.1020  0.2300  0.2300  0.2500  0.2200  0.2200  0.2200  0.2500  0.2500  0.2500  0.4400  0.4400  0.4400  0.4400  0.4400  0.4400  0.4400  0.4400  0.4400  1.2000  1.2000  1.2000  1.2000  1.2000  1.2000  1.2000  1.2000  1.2000  0.1585  0.1616  0.1904  0.1820  0.1963  0.2111  0.2290  0.2324  0.2353
 1975 189    58   0.0960  0.0960  0.1120  0.0940  0.1030  0.1030  0.1020  0.1020  0.1020  0.2300  0.2300  0.2500  0.2200  0.2200  0.2200  0.2500  0.2500  0.2500  0.4400  0.4400  0.4400  0.4400  0.4400  0.4400  0.4400  0.4400  0.4400  1.2000  1.2000  1.2000  1.2000  1.2000  1.2000  1.2000  1.2000  1.2000  0.1389  0.1546  0.1842  0.1779  0.1934  0.2096  0.2288  0.2324  0.2352
 1975 190    59   0.0960  0.0960  0.1120  0.0940  0.1030  0.1030  0.1020  0.1020  0.1020  0.2300  0.2300  0.2500  0.2200  0.2200  0.2200  0.2500  0.2500  0.2500  0.4400  0.4400  0.4400  0.4400  0.4400  0.4400  0.4400  0.4400  0.4400  1.2000  1.2000  1.2000  1.2000  1.2000  1.2000  1.2000  1.2000  1.2000  0.1256  0.1466  0.1771  0.1731  0.1899  0.2078  0.2285  0.2324  0.2352
 1975 191    60   0.0960  0.0960  0.1120  0.0940  0.1030  0.1030  0.1020  0.1020  0.1020  0.2300  0.2300  0.2500  0.2200  0.2200  0.2200  0.2500  0.2500  0.2500  0.4400  0.4400  0.4400  0.4400  0.4400  0.4400  0.4400  0.4400  0.4400  1.2000  1.2000  1.2000  1.2000  1.2000  1.2000  1.2000  1.2000  1.2000  0.1158  0.1393  0.1688  0.1674  0.1858  0.2055  0.2281  0.2324  0.2352
 1975 192    61   0.0960  0.0960  0.1120  0.0940  0.1030  0.1030  0.1020  0.1020  0.1020  0.2300  0.2300  0.2500  0.2200  0.2200  0.2200  0.2500  0.2500  0.2500  0.4400  0.4400  0.4400  0.4400  0.4400  0.4400  0.4400  0.4400  0.4400  1.2000  1.2000  1.2000  1.2000  1.2000  1.2000  1.2000  1.2000  1.2000  0.1075  0.1350  0.1595  0.1609  0.1810  0.2028  0.2275  0.2324  0.2352
 1975 193    62   0.0960  0.0960  0.1120  0.0940  0.1030  0.1030  0.1020  0.1020  0.1020  0.2300  0.2300  0.2500  0.2200  0.2200  0.2200  0.2500  0.2500  0.2500  0.4400  0.4400  0.4400  0.4400  0.4400  0.4400  0.4400  0.4400  0.4400  1.2000  1.2000  1.2000  1.2000  1.2000  1.2000  1.2000  1.2000  1.2000  0.1002  0.1310  0.1533  0.1520  0.1744  0.1989  0.2266  0.2324  0.2352
 1975 194    63   0.0960  0.0960  0.1120  0.0940  0.1030  0.1030  0.1020  0.1020  0.1020  0.2300  0.2300  0.2500  0.2200  0.2200  0.2200  0.2500  0.2500  0.2500  0.4400  0.4400  0.4400  0.4400  0.4400  0.4400  0.4400  0.4400  0.4400  1.2000  1.2000  1.2000  1.2000  1.2000  1.2000  1.2000  1.2000  1.2000  0.0938  0.1278  0.1493  0.1419  0.1668  0.1944  0.2253  0.2323  0.2352
 1975 195    64   0.0960  0.0960  0.1120  0.0940  0.1030  0.1030  0.1020  0.1020  0.1020  0.2300  0.2300  0.2500  0.2200  0.2200  0.2200  0.2500  0.2500  0.2500  0.4400  0.4400  0.4400  0.4400  0.4400  0.4400  0.4400  0.4400  0.4400  1.2000  1.2000  1.2000  1.2000  1.2000  1.2000  1.2000  1.2000  1.2000  0.0880  0.1248  0.1458  0.1343  0.1573  0.1885  0.2235  0.2323  0.2352
 1975 196    65   0.0960  0.0960  0.1120  0.0940  0.1030  0.1030  0.1020  0.1020  0.1020  0.2300  0.2300  0.2500  0.2200  0.2200  0.2200  0.2500  0.2500  0.2500  0.4400  0.4400  0.4400  0.4400  0.4400  0.4400  0.4400  0.4400  0.4400  1.2000  1.2000  1.2000  1.2000  1.2000  1.2000  1.2000  1.2000  1.2000  0.0827  0.1220  0.1426  0.1298  0.1460  0.1811  0.2211  0.2322  0.2352
 1975 197    66   0.0960  0.0960  0.1120  0.0940  0.1030  0.1030  0.1020  0.1020  0.1020  0.2300  0.2300  0.2500  0.2200  0.2200  0.2200  0.2500  0.2500  0.2500  0.4400  0.4400  0.4400  0.4400  0.4400  0.4400  0.4400  0.4400  0.4400  1.2000  1.2000  1.2000  1.2000  1.2000  1.2000  1.2000  1.2000  1.2000  0.1543  0.1197  0.1401  0.1267  0.1419  0.1732  0.2183  0.2321  0.2352
 1975 198    67   0.0960  0.0960  0.1120  0.0940  0.1030  0.1030  0.1020  0.1020  0.1020  0.2300  0.2300  0.2500  0.2200  0.2200  0.2200  0.2500  0.2500  0.2500  0.4400  0.4400  0.4400  0.4400  0.4400  0.4400  0.4400  0.4400  0.4400  1.2000  1.2000  1.2000  1.2000  1.2000  1.2000  1.2000  1.2000  1.2000  0.1173  0.1179  0.1383  0.1246  0.1393  0.1659  0.2157  0.2319  0.2352
 1975 199    68   0.0960  0.0960  0.1120  0.0940  0.1030  0.1030  0.1020  0.1020  0.1020  0.2300  0.2300  0.2500  0.2200  0.2200  0.2200  0.2500  0.2500  0.2500  0.4400  0.4400  0.4400  0.4400  0.4400  0.4400  0.4400  0.4400  0.4400  1.2000  1.2000  1.2000  1.2000  1.2000  1.2000  1.2000  1.2000  1.2000  0.1077  0.1159  0.1362  0.1223  0.1366  0.1561  0.2121  0.2316  0.2352
 1975 200    69   0.0960  0.0960  0.1120  0.0940  0.1030  0.1030  0.1020  0.1020  0.1020  0.2300  0.2300  0.2500  0.2200  0.2200  0.2200  0.2500  0.2500  0.2500  0.4400  0.4400  0.4400  0.4400  0.4400  0.4400  0.4400  0.4400  0.4400  1.2000  1.2000  1.2000  1.2000  1.2000  1.2000  1.2000  1.2000  1.2000  0.1000  0.1142  0.1344  0.1203  0.1344  0.1476  0.2080  0.2312  0.2352
 1975 201    70   0.0960  0.0960  0.1120  0.0940  0.1030  0.1030  0.1020  0.1020  0.1020  0.2300  0.2300  0.2500  0.2200  0.2200  0.2200  0.2500  0.2500  0.2500  0.4400  0.4400  0.4400  0.4400  0.4400  0.4400  0.4400  0.4400  0.4400  1.2000  1.2000  1.2000  1.2000  1.2000  1.2000  1.2000  1.2000  1.2000  0.0936  0.1126  0.1329  0.1187  0.1325  0.1436  0.2037  0.2308  0.2352
 1975 202    71   0.0960  0.0960  0.1120  0.0940  0.1030  0.1030  0.1020  0.1020  0.1020  0.2300  0.2300  0.2500  0.2200  0.2200  0.2200  0.2500  0.2500  0.2500  0.4400  0.4400  0.4400  0.4400  0.4400  0.4400  0.4400  0.4400  0.4400  1.2000  1.2000  1.2000  1.2000  1.2000  1.2000  1.2000  1.2000  1.2000  0.0878  0.1112  0.1315  0.1172  0.1309  0.1408  0.1992  0.2302  0.2352
 1975 203    72   0.0960  0.0960  0.1120  0.0940  0.1030  0.1030  0.1020  0.1020  0.1020  0.2300  0.2300  0.2500  0.2200  0.2200  0.2200  0.2500  0.2500  0.2500  0.4400  0.4400  0.4400  0.4400  0.4400  0.4400  0.4400  0.4400  0.4400  1.2000  1.2000  1.2000  1.2000  1.2000  1.2000  1.2000  1.2000  1.2000  0.0826  0.1098  0.1302  0.1159  0.1295  0.1385  0.1946  0.2296  0.2351
 1975 204    73   0.0960  0.0960  0.1120  0.0940  0.1030  0.1030  0.1020  0.1020  0.1020  0.2300  0.2300  0.2500  0.2200  0.2200  0.2200  0.2500  0.2500  0.2500  0.4400  0.4400  0.4400  0.4400  0.4400  0.4400  0.4400  0.4400  0.4400  1.2000  1.2000  1.2000  1.2000  1.2000  1.2000  1.2000  1.2000  1.2000  0.0778  0.1086  0.1291  0.1148  0.1283  0.1367  0.1898  0.2289  0.2351
 1975 205    74   0.0960  0.0960  0.1120  0.0940  0.1030  0.1030  0.1020  0.1020  0.1020  0.2300  0.2300  0.2500  0.2200  0.2200  0.2200  0.2500  0.2500  0.2500  0.4400  0.4400  0.4400  0.4400  0.4400  0.4400  0.4400  0.4400  0.4400  1.2000  1.2000  1.2000  1.2000  1.2000  1.2000  1.2000  1.2000  1.2000  0.0734  0.1075  0.1280  0.1137  0.1271  0.1351  0.1848  0.2282  0.2351
 1975 206    75   0.0960  0.0960  0.1120  0.0940  0.1030  0.1030  0.1020  0.1020  0.1020  0.2300  0.2300  0.2500  0.2200  0.2200  0.2200  0.2500  0.2500  0.2500  0.4400  0.4400  0.4400  0.4400  0.4400  0.4400  0.4400  0.4400  0.4400  1.2000  1.2000  1.2000  1.2000  1.2000  1.2000  1.2000  1.2000  1.2000  0.0694  0.1064  0.1270  0.1128  0.1261  0.1337  0.1798  0.2274  0.2351
 1975 207    76   0.0960  0.0960  0.1120  0.0940  0.1030  0.1030  0.1020  0.1020  0.1020  0.2300  0.2300  0.2500  0.2200  0.2200  0.2200  0.2500  0.2500  0.2500  0.4400  0.4400  0.4400  0.4400  0.4400  0.4400  0.4400  0.4400  0.4400  1.2000  1.2000  1.2000  1.2000  1.2000  1.2000  1.2000  1.2000  1.2000  0.0658  0.1054  0.1261  0.1119  0.1251  0.1325  0.1746  0.2265  0.2351
 1975 208    77   0.0960  0.0960  0.1120  0.0940  0.1030  0.1030  0.1020  0.1020  0.1020  0.2300  0.2300  0.2500  0.2200  0.2200  0.2200  0.2500  0.2500  0.2500  0.4400  0.4400  0.4400  0.4400  0.4400  0.4400  0.4400  0.4400  0.4400  1.2000  1.2000  1.2000  1.2000  1.2000  1.2000  1.2000  1.2000  1.2000  0.0625  0.1045  0.1253  0.1111  0.1243  0.1314  0.1694  0.2256  0.2351
 1975 209    78   0.0960  0.0960  0.1120  0.0940  0.1030  0.1030  0.1020  0.1020  0.1020  0.2300  0.2300  0.2500  0.2200  0.2200  0.2200  0.2500  0.2500  0.2500  0.4400  0.4400  0.4400  0.4400  0.4400  0.4400  0.4400  0.4400  0.4400  1.2000  1.2000  1.2000  1.2000  1.2000  1.2000  1.2000  1.2000  1.2000  0.0595  0.1036  0.1245  0.1103  0.1235  0.1304  0.1642  0.2247  0.2351
 1975 210    79   0.0960  0.0960  0.1120  0.0940  0.1030  0.1030  0.1020  0.1020  0.1020  0.2300  0.2300  0.2500  0.2200  0.2200  0.2200  0.2500  0.2500  0.2500  0.4400  0.4400  0.4400  0.4400  0.4400  0.4400  0.4400  0.4400  0.4400  1.2000  1.2000  1.2000  1.2000  1.2000  1.2000  1.2000  1.2000  1.2000  0.1484  0.1027  0.1238  0.1096  0.1227  0.1295  0.1590  0.2238  0.2351
 1975 211    80   0.0960  0.0960  0.1120  0.0940  0.1030  0.1030  0.1020  0.1020  0.1020  0.2300  0.2300  0.2500  0.2200  0.2200  0.2200  0.2500  0.2500  0.2500  0.4400  0.4400  0.4400  0.4400  0.4400  0.4400  0.4400  0.4400  0.4400  1.2000  1.2000  1.2000  1.2000  1.2000  1.2000  1.2000  1.2000  1.2000  0.1393  0.1022  0.1235  0.1094  0.1225  0.1292  0.1571  0.2234  0.2351
 1975 212    81   0.0960  0.0960  0.1120  0.0940  0.1030  0.1030  0.1020  0.1020  0.1020  0.2300  0.2300  0.2500  0.2200  0.2200  0.2200  0.2500  0.2500  0.2500  0.4400  0.4400  0.4400  0.4400  0.4400  0.4400  0.4400  0.4400  0.4400  1.2000  1.2000  1.2000  1.2000  1.2000  1.2000  1.2000  1.2000  1.2000  0.3315  0.2211  0.1225  0.1087  0.1218  0.1285  0.1548  0.2225  0.2346
 1975 213    82   0.0960  0.0960  0.1120  0.0940  0.1030  0.1030  0.1020  0.1020  0.1020  0.2300  0.2300  0.2500  0.2200  0.2200  0.2200  0.2500  0.2500  0.2500  0.4400  0.4400  0.4400  0.4400  0.4400  0.4400  0.4400  0.4400  0.4400  1.2000  1.2000  1.2000  1.2000  1.2000  1.2000  1.2000  1.2000  1.2000  0.2729  0.2296  0.1267  0.1081  0.1213  0.1280  0.1538  0.2218  0.2341
 1975 214    83   0.0960  0.0960  0.1120  0.0940  0.1030  0.1030  0.1020  0.1020  0.1020  0.2300  0.2300  0.2500  0.2200  0.2200  0.2200  0.2500  0.2500  0.2500  0.4400  0.4400  0.4400  0.4400  0.4400  0.4400  0.4400  0.4400  0.4400  1.2000  1.2000  1.2000  1.2000  1.2000  1.2000  1.2000  1.2000  1.2000  0.2298  0.2210  0.1285  0.1071  0.1203  0.1271  0.1521  0.2205  0.2332
 1975 215    84   0.0960  0.0960  0.1120  0.0940  0.1030  0.1030  0.1020  0.1020  0.1020  0.2300  0.2300  0.2500  0.2200  0.2200  0.2200  0.2500  0.2500  0.2500  0.4400  0.4400  0.4400  0.4400  0.4400  0.4400  0.4400  0.4400  0.4400  1.2000  1.2000  1.2000  1.2000  1.2000  1.2000  1.2000  1.2000  1.2000  0.2148  0.2124  0.1272  0.1063  0.1196  0.1264  0.1509  0.2196  0.2325
 1975 216    85   0.0960  0.0960  0.1120  0.0940  0.1030  0.1030  0.1020  0.1020  0.1020  0.2300  0.2300  0.2500  0.2200  0.2200  0.2200  0.2500  0.2500  0.2500  0.4400  0.4400  0.4400  0.4400  0.4400  0.4400  0.4400  0.4400  0.4400  1.2000  1.2000  1.2000  1.2000  1.2000  1.2000  1.2000  1.2000  1.2000  0.1915  0.2057  0.1269  0.1062  0.1195  0.1263  0.1505  0.2194  0.2325
 1975 217    86   0.0960  0.0960  0.1120  0.0940  0.1030  0.1030  0.1020  0.1020  0.1020  0.2300  0.2300  0.2500  0.2200  0.2200  0.2200  0.2500  0.2500  0.2500  0.4400  0.4400  0.4400  0.4400  0.4400  0.4400  0.4400  0.4400  0.4400  1.2000  1.2000  1.2000  1.2000  1.2000  1.2000  1.2000  1.2000  1.2000  0.1671  0.1962  0.1266  0.1060  0.1193  0.1261  0.1498  0.2191  0.2325
 1975 218    87   0.0960  0.0960  0.1120  0.0940  0.1030  0.1030  0.1020  0.1020  0.1020  0.2300  0.2300  0.2500  0.2200  0.2200  0.2200  0.2500  0.2500  0.2500  0.4400  0.4400  0.4400  0.4400  0.4400  0.4400  0.4400  0.4400  0.4400  1.2000  1.2000  1.2000  1.2000  1.2000  1.2000  1.2000  1.2000  1.2000  0.1458  0.1876  0.1263  0.1059  0.1192  0.1260  0.1492  0.2189  0.2324
 1975 219    88   0.0960  0.0960  0.1120  0.0940  0.1030  0.1030  0.1020  0.1020  0.1020  0.2300  0.2300  0.2500  0.2200  0.2200  0.2200  0.2500  0.2500  0.2500  0.4400  0.4400  0.4400  0.4400  0.4400  0.4400  0.4400  0.4400  0.4400  1.2000  1.2000  1.2000  1.2000  1.2000  1.2000  1.2000  1.2000  1.2000  0.2709  0.2085  0.1262  0.1058  0.1191  0.1259  0.1490  0.2188  0.2324
 1975 220    89   0.0960  0.0960  0.1120  0.0940  0.1030  0.1030  0.1020  0.1020  0.1020  0.2300  0.2300  0.2500  0.2200  0.2200  0.2200  0.2500  0.2500  0.2500  0.4400  0.4400  0.4400  0.4400  0.4400  0.4400  0.4400  0.4400  0.4400  1.2000  1.2000  1.2000  1.2000  1.2000  1.2000  1.2000  1.2000  1.2000  0.2246  0.2080  0.1242  0.1047  0.1181  0.1249  0.1477  0.2174  0.2313
 1975 221    90   0.0960  0.0960  0.1120  0.0940  0.1030  0.1030  0.1020  0.1020  0.1020  0.2300  0.2300  0.2500  0.2200  0.2200  0.2200  0.2500  0.2500  0.2500  0.4400  0.4400  0.4400  0.4400  0.4400  0.4400  0.4400  0.4400  0.4400  1.2000  1.2000  1.2000  1.2000  1.2000  1.2000  1.2000  1.2000  1.2000  0.2028  0.2033  0.1240  0.1046  0.1180  0.1249  0.1475  0.2173  0.2313
 1975 222    91   0.0960  0.0960  0.1120  0.0940  0.1030  0.1030  0.1020  0.1020  0.1020  0.2300  0.2300  0.2500  0.2200  0.2200  0.2200  0.2500  0.2500  0.2500  0.4400  0.4400  0.4400  0.4400  0.4400  0.4400  0.4400  0.4400  0.4400  1.2000  1.2000  1.2000  1.2000  1.2000  1.2000  1.2000  1.2000  1.2000  0.1841  0.1996  0.1239  0.1045  0.1180  0.1248  0.1473  0.2172  0.2313
 1975 223    92   0.0960  0.0960  0.1120  0.0940  0.1030  0.1030  0.1020  0.1020  0.1020  0.2300  0.2300  0.2500  0.2200  0.2200  0.2200  0.2500  0.2500  0.2500  0.4400  0.4400  0.4400  0.4400  0.4400  0.4400  0.4400  0.4400  0.4400  1.2000  1.2000  1.2000  1.2000  1.2000  1.2000  1.2000  1.2000  1.2000  0.2061  0.1966  0.1237  0.1045  0.1179  0.1248  0.1472  0.2171  0.2312
 1975 224    93   0.0960  0.0960  0.1120  0.0940  0.1030  0.1030  0.1020  0.1020  0.1020  0.2300  0.2300  0.2500  0.2200  0.2200  0.2200  0.2500  0.2500  0.2500  0.4400  0.4400  0.4400  0.4400  0.4400  0.4400  0.4400  0.4400  0.4400  1.2000  1.2000  1.2000  1.2000  1.2000  1.2000  1.2000  1.2000  1.2000  0.1885  0.1941  0.1236  0.1044  0.1179  0.1247  0.1471  0.2170  0.2312
 1975 225    94   0.0960  0.0960  0.1120  0.0940  0.1030  0.1030  0.1020  0.1020  0.1020  0.2300  0.2300  0.2500  0.2200  0.2200  0.2200  0.2500  0.2500  0.2500  0.4400  0.4400  0.4400  0.4400  0.4400  0.4400  0.4400  0.4400  0.4400  1.2000  1.2000  1.2000  1.2000  1.2000  1.2000  1.2000  1.2000  1.2000  0.1734  0.1925  0.1235  0.1044  0.1179  0.1247  0.1470  0.2170  0.2312
 1975 226    95   0.0960  0.0960  0.1120  0.0940  0.1030  0.1030  0.1020  0.1020  0.1020  0.2300  0.2300  0.2500  0.2200  0.2200  0.2200  0.2500  0.2500  0.2500  0.4400  0.4400  0.4400  0.4400  0.4400  0.4400  0.4400  0.4400  0.4400  1.2000  1.2000  1.2000  1.2000  1.2000  1.2000  1.2000  1.2000  1.2000  0.1604  0.1915  0.1234  0.1043  0.1178  0.1247  0.1470  0.2170  0.2312
 1975 227    96   0.0960  0.0960  0.1120  0.0940  0.1030  0.1030  0.1020  0.1020  0.1020  0.2300  0.2300  0.2500  0.2200  0.2200  0.2200  0.2500  0.2500  0.2500  0.4400  0.4400  0.4400  0.4400  0.4400  0.4400  0.4400  0.4400  0.4400  1.2000  1.2000  1.2000  1.2000  1.2000  1.2000  1.2000  1.2000  1.2000  0.1486  0.1905  0.1233  0.1043  0.1178  0.1247  0.1470  0.2170  0.2312
 1975 228    97   0.0960  0.0960  0.1120  0.0940  0.1030  0.1030  0.1020  0.1020  0.1020  0.2300  0.2300  0.2500  0.2200  0.2200  0.2200  0.2500  0.2500  0.2500  0.4400  0.4400  0.4400  0.4400  0.4400  0.4400  0.4400  0.4400  0.4400  1.2000  1.2000  1.2000  1.2000  1.2000  1.2000  1.2000  1.2000  1.2000  0.1379  0.1896  0.1232  0.1043  0.1178  0.1247  0.1470  0.2170  0.2312
 1975 229    98   0.0960  0.0960  0.1120  0.0940  0.1030  0.1030  0.1020  0.1020  0.1020  0.2300  0.2300  0.2500  0.2200  0.2200  0.2200  0.2500  0.2500  0.2500  0.4400  0.4400  0.4400  0.4400  0.4400  0.4400  0.4400  0.4400  0.4400  1.2000  1.2000  1.2000  1.2000  1.2000  1.2000  1.2000  1.2000  1.2000  0.2234  0.1919  0.1231  0.1043  0.1178  0.1247  0.1470  0.2170  0.2312
 1975 230    99   0.0960  0.0960  0.1120  0.0940  0.1030  0.1030  0.1020  0.1020  0.1020  0.2300  0.2300  0.2500  0.2200  0.2200  0.2200  0.2500  0.2500  0.2500  0.4400  0.4400  0.4400  0.4400  0.4400  0.4400  0.4400  0.4400  0.4400  1.2000  1.2000  1.2000  1.2000  1.2000  1.2000  1.2000  1.2000  1.2000  0.2061  0.1909  0.1230  0.1042  0.1178  0.1246  0.1470  0.2169  0.2312
 1975 231   100   0.0960  0.0960  0.1120  0.0940  0.1030  0.1030  0.1020  0.1020  0.1020  0.2300  0.2300  0.2500  0.2200  0.2200  0.2200  0.2500  0.2500  0.2500  0.4400  0.4400  0.4400  0.4400  0.4400  0.4400  0.4400  0.4400  0.4400  1.2000  1.2000  1.2000  1.2000  1.2000  1.2000  1.2000  1.2000  1.2000  0.2832  0.2150  0.1212  0.1032  0.1168  0.1238  0.1461  0.2157  0.2301
 1975 232   101   0.0960  0.0960  0.1120  0.0940  0.1030  0.1030  0.1020  0.1020  0.1020  0.2300  0.2300  0.2500  0.2200  0.2200  0.2200  0.2500  0.2500  0.2500  0.4400  0.4400  0.4400  0.4400  0.4400  0.4400  0.4400  0.4400  0.4400  1.2000  1.2000  1.2000  1.2000  1.2000  1.2000  1.2000  1.2000  1.2000  0.2863  0.2322  0.1254  0.1022  0.1159  0.1230  0.1452  0.2145  0.2290
 1975 233   102   0.0960  0.0960  0.1120  0.0940  0.1030  0.1030  0.1020  0.1020  0.1020  0.2300  0.2300  0.2500  0.2200  0.2200  0.2200  0.2500  0.2500  0.2500  0.4400  0.4400  0.4400  0.4400  0.4400  0.4400  0.4400  0.4400  0.4400  1.2000  1.2000  1.2000  1.2000  1.2000  1.2000  1.2000  1.2000  1.2000  0.3099  0.2950  0.1732  0.1008  0.1147  0.1218  0.1440  0.2129  0.2275
