*SOIL WATER BY LAYER DAILY OUTPUT FILE

*DSSAT Cropping System Model Ver. 4.8.5.021 -develop  JUL 11, 2025 15:43:00

!----------------------------
! Variable Descriptions (unit)
!----------------------------
!YEAR    Year of current date of simulation (YYYY)
!DOY     Day of year (d)
!DAS     Days after start of simulation (d)
!LL#D    Volumetric soil water content at Lower Limit in soil layer # (cm3 [water] / cm3 [soil])
!DUL#D   Volumetric soil water content at Drained Upper Limit in soil layer # (cm3[water]/cm3[soil])
!SAT#D   Volumetric soil water content at Saturation in soil layer # (cm3 [water] / cm3 [soil])
!BD#D    Bulk density in soil layer # (g [soil] / cm3 [soil])
!SW#D    Volumetric soil water content in soil layer #  (cm3 [water] / cm3 [soil])

!                    0-5    5-15   15-25   25-35   35-45   45-55   55-65   65-95  95-125 125-155     0-5    5-15   15-25   25-35   35-45   45-55   55-65   65-95  95-125 125-155     0-5    5-15   15-25   25-35   35-45   45-55   55-65   65-95  95-125 125-155     0-5    5-15   15-25   25-35   35-45   45-55   55-65   65-95  95-125 125-155     0-5    5-15   15-25   25-35   35-45   45-55   55-65   65-95  95-125 125-155
@YEAR DOY   DAS     LL1D    LL2D    LL3D    LL4D    LL5D    LL6D    LL7D    LL8D    LL9D   LL10D   DUL1D   DUL2D   DUL3D   DUL4D   DUL5D   DUL6D   DUL7D   DUL8D   DUL9D  DUL10D   SAT1D   SAT2D   SAT3D   SAT4D   SAT5D   SAT6D   SAT7D   SAT8D   SAT9D  SAT10D    BD1D    BD2D    BD3D    BD4D    BD5D    BD6D    BD7D    BD8D    BD9D   BD10D    SW1D    SW2D    SW3D    SW4D    SW5D    SW6D    SW7D    SW8D    SW9D   SW10D
 1974 305     1   0.1100  0.1300  0.1500  0.2200  0.2200  0.2200  0.2200  0.2200  0.2200  0.2200  0.2800  0.3000  0.3200  0.3700  0.3700  0.3700  0.3700  0.3700  0.3700  0.3700  0.3300  0.3750  0.4200  0.4200  0.4200  0.4200  0.4200  0.4200  0.4200  0.4200  1.1000  1.1500  1.2000  1.2500  1.2500  1.2500  1.2500  1.2500  1.2500  1.2500  0.3069  0.3244  0.3372  0.3472  0.3299  0.3299  0.3299  0.3299  0.3300  0.3300
 1974 306     2   0.1100  0.1300  0.1500  0.2200  0.2200  0.2200  0.2200  0.2200  0.2200  0.2200  0.2800  0.3000  0.3200  0.3700  0.3700  0.3700  0.3700  0.3700  0.3700  0.3700  0.3300  0.3750  0.4200  0.4200  0.4200  0.4200  0.4200  0.4200  0.4200  0.4200  1.1000  1.1500  1.2000  1.2500  1.2500  1.2500  1.2500  1.2500  1.2500  1.2500  0.2979  0.3156  0.3363  0.3636  0.3297  0.3298  0.3298  0.3298  0.3299  0.3299
 1974 307     3   0.1100  0.1300  0.1500  0.2200  0.2200  0.2200  0.2200  0.2200  0.2200  0.2200  0.2800  0.3000  0.3200  0.3700  0.3700  0.3700  0.3700  0.3700  0.3700  0.3700  0.3300  0.3750  0.4200  0.4200  0.4200  0.4200  0.4200  0.4200  0.4200  0.4200  1.1000  1.1500  1.2000  1.2500  1.2500  1.2500  1.2500  1.2500  1.2500  1.2500  0.3048  0.3214  0.3387  0.3760  0.3359  0.3295  0.3295  0.3296  0.3297  0.3297
 1974 308     4   0.1100  0.1300  0.1500  0.2200  0.2200  0.2200  0.2200  0.2200  0.2200  0.2200  0.2800  0.3000  0.3200  0.3700  0.3700  0.3700  0.3700  0.3700  0.3700  0.3700  0.3300  0.3750  0.4200  0.4200  0.4200  0.4200  0.4200  0.4200  0.4200  0.4200  1.1000  1.1500  1.2000  1.2500  1.2500  1.2500  1.2500  1.2500  1.2500  1.2500  0.2900  0.3097  0.3287  0.3725  0.3647  0.3292  0.3293  0.3294  0.3295  0.3296
 1974 309     5   0.1100  0.1300  0.1500  0.2200  0.2200  0.2200  0.2200  0.2200  0.2200  0.2200  0.2800  0.3000  0.3200  0.3700  0.3700  0.3700  0.3700  0.3700  0.3700  0.3700  0.3300  0.3750  0.4200  0.4200  0.4200  0.4200  0.4200  0.4200  0.4200  0.4200  1.1000  1.1500  1.2000  1.2500  1.2500  1.2500  1.2500  1.2500  1.2500  1.2500  0.2818  0.3036  0.3235  0.3718  0.3695  0.3352  0.3289  0.3291  0.3293  0.3294
 1974 310     6   0.1100  0.1300  0.1500  0.2200  0.2200  0.2200  0.2200  0.2200  0.2200  0.2200  0.2800  0.3000  0.3200  0.3700  0.3700  0.3700  0.3700  0.3700  0.3700  0.3700  0.3300  0.3750  0.4200  0.4200  0.4200  0.4200  0.4200  0.4200  0.4200  0.4200  1.1000  1.1500  1.2000  1.2500  1.2500  1.2500  1.2500  1.2500  1.2500  1.2500  0.2831  0.3020  0.3226  0.3720  0.3716  0.3349  0.3286  0.3289  0.3291  0.3292
 1974 311     7   0.1100  0.1300  0.1500  0.2200  0.2200  0.2200  0.2200  0.2200  0.2200  0.2200  0.2800  0.3000  0.3200  0.3700  0.3700  0.3700  0.3700  0.3700  0.3700  0.3700  0.3300  0.3750  0.4200  0.4200  0.4200  0.4200  0.4200  0.4200  0.4200  0.4200  1.1000  1.1500  1.2000  1.2500  1.2500  1.2500  1.2500  1.2500  1.2500  1.2500  0.2951  0.3039  0.3232  0.3725  0.3720  0.3369  0.3285  0.3288  0.3290  0.3292
 1974 312     8   0.1100  0.1300  0.1500  0.2200  0.2200  0.2200  0.2200  0.2200  0.2200  0.2200  0.2800  0.3000  0.3200  0.3700  0.3700  0.3700  0.3700  0.3700  0.3700  0.3700  0.3300  0.3750  0.4200  0.4200  0.4200  0.4200  0.4200  0.4200  0.4200  0.4200  1.1000  1.1500  1.2000  1.2500  1.2500  1.2500  1.2500  1.2500  1.2500  1.2500  0.2896  0.3037  0.3234  0.3729  0.3724  0.3393  0.3284  0.3287  0.3290  0.3291
 1974 313     9   0.1100  0.1300  0.1500  0.2200  0.2200  0.2200  0.2200  0.2200  0.2200  0.2200  0.2800  0.3000  0.3200  0.3700  0.3700  0.3700  0.3700  0.3700  0.3700  0.3700  0.3300  0.3750  0.4200  0.4200  0.4200  0.4200  0.4200  0.4200  0.4200  0.4200  1.1000  1.1500  1.2000  1.2500  1.2500  1.2500  1.2500  1.2500  1.2500  1.2500  0.3067  0.3081  0.3257  0.3742  0.3733  0.3426  0.3283  0.3286  0.3289  0.3291
 1974 314    10   0.1100  0.1300  0.1500  0.2200  0.2200  0.2200  0.2200  0.2200  0.2200  0.2200  0.2800  0.3000  0.3200  0.3700  0.3700  0.3700  0.3700  0.3700  0.3700  0.3700  0.3300  0.3750  0.4200  0.4200  0.4200  0.4200  0.4200  0.4200  0.4200  0.4200  1.1000  1.1500  1.2000  1.2500  1.2500  1.2500  1.2500  1.2500  1.2500  1.2500  0.3039  0.3255  0.3354  0.3795  0.3762  0.3489  0.3280  0.3283  0.3287  0.3289
 1974 315    11   0.1100  0.1300  0.1500  0.2200  0.2200  0.2200  0.2200  0.2200  0.2200  0.2200  0.2800  0.3000  0.3200  0.3700  0.3700  0.3700  0.3700  0.3700  0.3700  0.3700  0.3300  0.3750  0.4200  0.4200  0.4200  0.4200  0.4200  0.4200  0.4200  0.4200  1.1000  1.1500  1.2000  1.2500  1.2500  1.2500  1.2500  1.2500  1.2500  1.2500  0.3067  0.3365  0.3459  0.3877  0.3819  0.3608  0.3279  0.3283  0.3286  0.3288
 1974 316    12   0.1100  0.1300  0.1500  0.2200  0.2200  0.2200  0.2200  0.2200  0.2200  0.2200  0.2800  0.3000  0.3200  0.3700  0.3700  0.3700  0.3700  0.3700  0.3700  0.3700  0.3300  0.3750  0.4200  0.4200  0.4200  0.4200  0.4200  0.4200  0.4200  0.4200  1.1000  1.1500  1.2000  1.2500  1.2500  1.2500  1.2500  1.2500  1.2500  1.2500  0.2946  0.3208  0.3432  0.3902  0.3859  0.3732  0.3312  0.3281  0.3285  0.3287
 1974 317    13   0.1100  0.1300  0.1500  0.2200  0.2200  0.2200  0.2200  0.2200  0.2200  0.2200  0.2800  0.3000  0.3200  0.3700  0.3700  0.3700  0.3700  0.3700  0.3700  0.3700  0.3300  0.3750  0.4200  0.4200  0.4200  0.4200  0.4200  0.4200  0.4200  0.4200  1.1000  1.1500  1.2000  1.2500  1.2500  1.2500  1.2500  1.2500  1.2500  1.2500  0.3071  0.3374  0.3699  0.3949  0.3949  0.3949  0.3950  0.3609  0.3284  0.3287
 1974 318    14   0.1100  0.1300  0.1500  0.2200  0.2200  0.2200  0.2200  0.2200  0.2200  0.2200  0.2800  0.3000  0.3200  0.3700  0.3700  0.3700  0.3700  0.3700  0.3700  0.3700  0.3300  0.3750  0.4200  0.4200  0.4200  0.4200  0.4200  0.4200  0.4200  0.4200  1.1000  1.1500  1.2000  1.2500  1.2500  1.2500  1.2500  1.2500  1.2500  1.2500  0.3057  0.3368  0.3695  0.3946  0.3947  0.3947  0.3948  0.3774  0.3359  0.3286
 1974 319    15   0.1100  0.1300  0.1500  0.2200  0.2200  0.2200  0.2200  0.2200  0.2200  0.2200  0.2800  0.3000  0.3200  0.3700  0.3700  0.3700  0.3700  0.3700  0.3700  0.3700  0.3300  0.3750  0.4200  0.4200  0.4200  0.4200  0.4200  0.4200  0.4200  0.4200  1.1000  1.1500  1.2000  1.2500  1.2500  1.2500  1.2500  1.2500  1.2500  1.2500  0.3048  0.3363  0.3628  0.3944  0.3945  0.3946  0.3947  0.3805  0.3465  0.3284
 1974 320    16   0.1100  0.1300  0.1500  0.2200  0.2200  0.2200  0.2200  0.2200  0.2200  0.2200  0.2800  0.3000  0.3200  0.3700  0.3700  0.3700  0.3700  0.3700  0.3700  0.3700  0.3300  0.3750  0.4200  0.4200  0.4200  0.4200  0.4200  0.4200  0.4200  0.4200  1.1000  1.1500  1.2000  1.2500  1.2500  1.2500  1.2500  1.2500  1.2500  1.2500  0.3051  0.3335  0.3580  0.3945  0.3946  0.3947  0.3947  0.3812  0.3577  0.3283
 1974 321    17   0.1100  0.1300  0.1500  0.2200  0.2200  0.2200  0.2200  0.2200  0.2200  0.2200  0.2800  0.3000  0.3200  0.3700  0.3700  0.3700  0.3700  0.3700  0.3700  0.3700  0.3300  0.3750  0.4200  0.4200  0.4200  0.4200  0.4200  0.4200  0.4200  0.4200  1.1000  1.1500  1.2000  1.2500  1.2500  1.2500  1.2500  1.2500  1.2500  1.2500  0.3053  0.3366  0.3694  0.3946  0.3946  0.3947  0.3947  0.3948  0.3948  0.3691
 1974 322    18   0.1100  0.1300  0.1500  0.2200  0.2200  0.2200  0.2200  0.2200  0.2200  0.2200  0.2800  0.3000  0.3200  0.3700  0.3700  0.3700  0.3700  0.3700  0.3700  0.3700  0.3300  0.3750  0.4200  0.4200  0.4200  0.4200  0.4200  0.4200  0.4200  0.4200  1.1000  1.1500  1.2000  1.2500  1.2500  1.2500  1.2500  1.2500  1.2500  1.2500  0.3070  0.3366  0.3630  0.3949  0.3949  0.3949  0.3949  0.3893  0.3920  0.3806
 1974 323    19   0.1100  0.1300  0.1500  0.2200  0.2200  0.2200  0.2200  0.2200  0.2200  0.2200  0.2800  0.3000  0.3200  0.3700  0.3700  0.3700  0.3700  0.3700  0.3700  0.3700  0.3300  0.3750  0.4200  0.4200  0.4200  0.4200  0.4200  0.4200  0.4200  0.4200  1.1000  1.1500  1.2000  1.2500  1.2500  1.2500  1.2500  1.2500  1.2500  1.2500  0.3043  0.3362  0.3692  0.3944  0.3945  0.3946  0.3946  0.3899  0.3909  0.3856
 1974 324    20   0.1100  0.1300  0.1500  0.2200  0.2200  0.2200  0.2200  0.2200  0.2200  0.2200  0.2800  0.3000  0.3200  0.3700  0.3700  0.3700  0.3700  0.3700  0.3700  0.3700  0.3300  0.3750  0.4200  0.4200  0.4200  0.4200  0.4200  0.4200  0.4200  0.4200  1.1000  1.1500  1.2000  1.2500  1.2500  1.2500  1.2500  1.2500  1.2500  1.2500  0.3074  0.3374  0.3700  0.3950  0.3950  0.3950  0.3950  0.3940  0.3924  0.3890
 1974 325    21   0.1100  0.1300  0.1500  0.2200  0.2200  0.2200  0.2200  0.2200  0.2200  0.2200  0.2800  0.3000  0.3200  0.3700  0.3700  0.3700  0.3700  0.3700  0.3700  0.3700  0.3300  0.3750  0.4200  0.4200  0.4200  0.4200  0.4200  0.4200  0.4200  0.4200  1.1000  1.1500  1.2000  1.2500  1.2500  1.2500  1.2500  1.2500  1.2500  1.2500  0.3066  0.3371  0.3698  0.3948  0.3948  0.3949  0.3949  0.3949  0.3949  0.3949
 1974 326    22   0.1100  0.1300  0.1500  0.2200  0.2200  0.2200  0.2200  0.2200  0.2200  0.2200  0.2800  0.3000  0.3200  0.3700  0.3700  0.3700  0.3700  0.3700  0.3700  0.3700  0.3300  0.3750  0.4200  0.4200  0.4200  0.4200  0.4200  0.4200  0.4200  0.4200  1.1000  1.1500  1.2000  1.2500  1.2500  1.2500  1.2500  1.2500  1.2500  1.2500  0.2962  0.3218  0.3557  0.3949  0.3949  0.3949  0.3949  0.3883  0.3916  0.3932
 1974 327    23   0.1100  0.1300  0.1500  0.2200  0.2200  0.2200  0.2200  0.2200  0.2200  0.2200  0.2800  0.3000  0.3200  0.3700  0.3700  0.3700  0.3700  0.3700  0.3700  0.3700  0.3300  0.3750  0.4200  0.4200  0.4200  0.4200  0.4200  0.4200  0.4200  0.4200  1.1000  1.1500  1.2000  1.2500  1.2500  1.2500  1.2500  1.2500  1.2500  1.2500  0.2909  0.3128  0.3442  0.3944  0.3946  0.3947  0.3947  0.3832  0.3873  0.3902
 1974 328    24   0.1100  0.1300  0.1500  0.2200  0.2200  0.2200  0.2200  0.2200  0.2200  0.2200  0.2800  0.3000  0.3200  0.3700  0.3700  0.3700  0.3700  0.3700  0.3700  0.3700  0.3300  0.3750  0.4200  0.4200  0.4200  0.4200  0.4200  0.4200  0.4200  0.4200  1.1000  1.1500  1.2000  1.2500  1.2500  1.2500  1.2500  1.2500  1.2500  1.2500  0.3030  0.3110  0.3376  0.3910  0.3927  0.3937  0.3942  0.3806  0.3839  0.3871
 1974 329    25   0.1100  0.1300  0.1500  0.2200  0.2200  0.2200  0.2200  0.2200  0.2200  0.2200  0.2800  0.3000  0.3200  0.3700  0.3700  0.3700  0.3700  0.3700  0.3700  0.3700  0.3300  0.3750  0.4200  0.4200  0.4200  0.4200  0.4200  0.4200  0.4200  0.4200  1.1000  1.1500  1.2000  1.2500  1.2500  1.2500  1.2500  1.2500  1.2500  1.2500  0.2888  0.3044  0.3282  0.3800  0.3809  0.3815  0.3818  0.3750  0.3768  0.3784
 1974 330    26   0.1100  0.1300  0.1500  0.2200  0.2200  0.2200  0.2200  0.2200  0.2200  0.2200  0.2800  0.3000  0.3200  0.3700  0.3700  0.3700  0.3700  0.3700  0.3700  0.3700  0.3300  0.3750  0.4200  0.4200  0.4200  0.4200  0.4200  0.4200  0.4200  0.4200  1.1000  1.1500  1.2000  1.2500  1.2500  1.2500  1.2500  1.2500  1.2500  1.2500  0.2889  0.3037  0.3259  0.3778  0.3793  0.3803  0.3810  0.3742  0.3754  0.3769
 1974 331    27   0.1100  0.1300  0.1500  0.2200  0.2200  0.2200  0.2200  0.2200  0.2200  0.2200  0.2800  0.3000  0.3200  0.3700  0.3700  0.3700  0.3700  0.3700  0.3700  0.3700  0.3300  0.3750  0.4200  0.4200  0.4200  0.4200  0.4200  0.4200  0.4200  0.4200  1.1000  1.1500  1.2000  1.2500  1.2500  1.2500  1.2500  1.2500  1.2500  1.2500  0.2964  0.3051  0.3255  0.3766  0.3779  0.3791  0.3800  0.3737  0.3746  0.3757
 1974 332    28   0.1100  0.1300  0.1500  0.2200  0.2200  0.2200  0.2200  0.2200  0.2200  0.2200  0.2800  0.3000  0.3200  0.3700  0.3700  0.3700  0.3700  0.3700  0.3700  0.3700  0.3300  0.3750  0.4200  0.4200  0.4200  0.4200  0.4200  0.4200  0.4200  0.4200  1.1000  1.1500  1.2000  1.2500  1.2500  1.2500  1.2500  1.2500  1.2500  1.2500  0.3062  0.3107  0.3281  0.3772  0.3775  0.3782  0.3790  0.3733  0.3739  0.3748
 1974 333    29   0.1100  0.1300  0.1500  0.2200  0.2200  0.2200  0.2200  0.2200  0.2200  0.2200  0.2800  0.3000  0.3200  0.3700  0.3700  0.3700  0.3700  0.3700  0.3700  0.3700  0.3300  0.3750  0.4200  0.4200  0.4200  0.4200  0.4200  0.4200  0.4200  0.4200  1.1000  1.1500  1.2000  1.2500  1.2500  1.2500  1.2500  1.2500  1.2500  1.2500  0.3057  0.3223  0.3352  0.3811  0.3792  0.3786  0.3787  0.3730  0.3734  0.3740
 1974 334    30   0.1100  0.1300  0.1500  0.2200  0.2200  0.2200  0.2200  0.2200  0.2200  0.2200  0.2800  0.3000  0.3200  0.3700  0.3700  0.3700  0.3700  0.3700  0.3700  0.3700  0.3300  0.3750  0.4200  0.4200  0.4200  0.4200  0.4200  0.4200  0.4200  0.4200  1.1000  1.1500  1.2000  1.2500  1.2500  1.2500  1.2500  1.2500  1.2500  1.2500  0.2919  0.3107  0.3273  0.3753  0.3744  0.3742  0.3743  0.3729  0.3716  0.3719
 1974 335    31   0.1100  0.1300  0.1500  0.2200  0.2200  0.2200  0.2200  0.2200  0.2200  0.2200  0.2800  0.3000  0.3200  0.3700  0.3700  0.3700  0.3700  0.3700  0.3700  0.3700  0.3300  0.3750  0.4200  0.4200  0.4200  0.4200  0.4200  0.4200  0.4200  0.4200  1.1000  1.1500  1.2000  1.2500  1.2500  1.2500  1.2500  1.2500  1.2500  1.2500  0.2880  0.3068  0.3271  0.3762  0.3752  0.3747  0.3744  0.3721  0.3718  0.3719
 1974 336    32   0.1100  0.1300  0.1500  0.2200  0.2200  0.2200  0.2200  0.2200  0.2200  0.2200  0.2800  0.3000  0.3200  0.3700  0.3700  0.3700  0.3700  0.3700  0.3700  0.3700  0.3300  0.3750  0.4200  0.4200  0.4200  0.4200  0.4200  0.4200  0.4200  0.4200  1.1000  1.1500  1.2000  1.2500  1.2500  1.2500  1.2500  1.2500  1.2500  1.2500  0.2832  0.3031  0.3233  0.3729  0.3725  0.3722  0.3721  0.3720  0.3718  0.3718
 1974 337    33   0.1100  0.1300  0.1500  0.2200  0.2200  0.2200  0.2200  0.2200  0.2200  0.2200  0.2800  0.3000  0.3200  0.3700  0.3700  0.3700  0.3700  0.3700  0.3700  0.3700  0.3300  0.3750  0.4200  0.4200  0.4200  0.4200  0.4200  0.4200  0.4200  0.4200  1.1000  1.1500  1.2000  1.2500  1.2500  1.2500  1.2500  1.2500  1.2500  1.2500  0.2810  0.3013  0.3215  0.3728  0.3724  0.3721  0.3720  0.3720  0.3717  0.3718
 1974 338    34   0.1100  0.1300  0.1500  0.2200  0.2200  0.2200  0.2200  0.2200  0.2200  0.2200  0.2800  0.3000  0.3200  0.3700  0.3700  0.3700  0.3700  0.3700  0.3700  0.3700  0.3300  0.3750  0.4200  0.4200  0.4200  0.4200  0.4200  0.4200  0.4200  0.4200  1.1000  1.1500  1.2000  1.2500  1.2500  1.2500  1.2500  1.2500  1.2500  1.2500  0.2792  0.3005  0.3211  0.3724  0.3721  0.3719  0.3718  0.3718  0.3716  0.3717
 1974 339    35   0.1100  0.1300  0.1500  0.2200  0.2200  0.2200  0.2200  0.2200  0.2200  0.2200  0.2800  0.3000  0.3200  0.3700  0.3700  0.3700  0.3700  0.3700  0.3700  0.3700  0.3300  0.3750  0.4200  0.4200  0.4200  0.4200  0.4200  0.4200  0.4200  0.4200  1.1000  1.1500  1.2000  1.2500  1.2500  1.2500  1.2500  1.2500  1.2500  1.2500  0.2775  0.2998  0.3206  0.3721  0.3719  0.3717  0.3716  0.3716  0.3715  0.3716
 1974 340    36   0.1100  0.1300  0.1500  0.2200  0.2200  0.2200  0.2200  0.2200  0.2200  0.2200  0.2800  0.3000  0.3200  0.3700  0.3700  0.3700  0.3700  0.3700  0.3700  0.3700  0.3300  0.3750  0.4200  0.4200  0.4200  0.4200  0.4200  0.4200  0.4200  0.4200  1.1000  1.1500  1.2000  1.2500  1.2500  1.2500  1.2500  1.2500  1.2500  1.2500  0.2761  0.2991  0.3203  0.3718  0.3716  0.3715  0.3715  0.3715  0.3714  0.3715
 1974 341    37   0.1100  0.1300  0.1500  0.2200  0.2200  0.2200  0.2200  0.2200  0.2200  0.2200  0.2800  0.3000  0.3200  0.3700  0.3700  0.3700  0.3700  0.3700  0.3700  0.3700  0.3300  0.3750  0.4200  0.4200  0.4200  0.4200  0.4200  0.4200  0.4200  0.4200  1.1000  1.1500  1.2000  1.2500  1.2500  1.2500  1.2500  1.2500  1.2500  1.2500  0.2748  0.2986  0.3199  0.3716  0.3714  0.3713  0.3713  0.3714  0.3713  0.3714
 1974 342    38   0.1100  0.1300  0.1500  0.2200  0.2200  0.2200  0.2200  0.2200  0.2200  0.2200  0.2800  0.3000  0.3200  0.3700  0.3700  0.3700  0.3700  0.3700  0.3700  0.3700  0.3300  0.3750  0.4200  0.4200  0.4200  0.4200  0.4200  0.4200  0.4200  0.4200  1.1000  1.1500  1.2000  1.2500  1.2500  1.2500  1.2500  1.2500  1.2500  1.2500  0.2823  0.2995  0.3198  0.3715  0.3714  0.3713  0.3713  0.3714  0.3712  0.3714
 1974 343    39   0.1100  0.1300  0.1500  0.2200  0.2200  0.2200  0.2200  0.2200  0.2200  0.2200  0.2800  0.3000  0.3200  0.3700  0.3700  0.3700  0.3700  0.3700  0.3700  0.3700  0.3300  0.3750  0.4200  0.4200  0.4200  0.4200  0.4200  0.4200  0.4200  0.4200  1.1000  1.1500  1.2000  1.2500  1.2500  1.2500  1.2500  1.2500  1.2500  1.2500  0.2813  0.3000  0.3196  0.3713  0.3712  0.3711  0.3712  0.3713  0.3712  0.3713
 1974 344    40   0.1100  0.1300  0.1500  0.2200  0.2200  0.2200  0.2200  0.2200  0.2200  0.2200  0.2800  0.3000  0.3200  0.3700  0.3700  0.3700  0.3700  0.3700  0.3700  0.3700  0.3300  0.3750  0.4200  0.4200  0.4200  0.4200  0.4200  0.4200  0.4200  0.4200  1.1000  1.1500  1.2000  1.2500  1.2500  1.2500  1.2500  1.2500  1.2500  1.2500  0.3065  0.3310  0.3352  0.3782  0.3747  0.3728  0.3720  0.3718  0.3711  0.3712
 1974 345    41   0.1100  0.1300  0.1500  0.2200  0.2200  0.2200  0.2200  0.2200  0.2200  0.2200  0.2800  0.3000  0.3200  0.3700  0.3700  0.3700  0.3700  0.3700  0.3700  0.3700  0.3300  0.3750  0.4200  0.4200  0.4200  0.4200  0.4200  0.4200  0.4200  0.4200  1.1000  1.1500  1.2000  1.2500  1.2500  1.2500  1.2500  1.2500  1.2500  1.2500  0.3062  0.3322  0.3437  0.3859  0.3802  0.3765  0.3742  0.3715  0.3726  0.3712
 1974 346    42   0.1100  0.1300  0.1500  0.2200  0.2200  0.2200  0.2200  0.2200  0.2200  0.2200  0.2800  0.3000  0.3200  0.3700  0.3700  0.3700  0.3700  0.3700  0.3700  0.3700  0.3300  0.3750  0.4200  0.4200  0.4200  0.4200  0.4200  0.4200  0.4200  0.4200  1.1000  1.1500  1.2000  1.2500  1.2500  1.2500  1.2500  1.2500  1.2500  1.2500  0.3073  0.3372  0.3504  0.3931  0.3867  0.3816  0.3778  0.3721  0.3723  0.3717
 1974 347    43   0.1100  0.1300  0.1500  0.2200  0.2200  0.2200  0.2200  0.2200  0.2200  0.2200  0.2800  0.3000  0.3200  0.3700  0.3700  0.3700  0.3700  0.3700  0.3700  0.3700  0.3300  0.3750  0.4200  0.4200  0.4200  0.4200  0.4200  0.4200  0.4200  0.4200  1.1000  1.1500  1.2000  1.2500  1.2500  1.2500  1.2500  1.2500  1.2500  1.2500  0.2918  0.3178  0.3347  0.3812  0.3780  0.3755  0.3737  0.3719  0.3722  0.3716
 1974 348    44   0.1100  0.1300  0.1500  0.2200  0.2200  0.2200  0.2200  0.2200  0.2200  0.2200  0.2800  0.3000  0.3200  0.3700  0.3700  0.3700  0.3700  0.3700  0.3700  0.3700  0.3300  0.3750  0.4200  0.4200  0.4200  0.4200  0.4200  0.4200  0.4200  0.4200  1.1000  1.1500  1.2000  1.2500  1.2500  1.2500  1.2500  1.2500  1.2500  1.2500  0.2883  0.3102  0.3324  0.3817  0.3798  0.3776  0.3756  0.3718  0.3719  0.3718
 1974 349    45   0.1100  0.1300  0.1500  0.2200  0.2200  0.2200  0.2200  0.2200  0.2200  0.2200  0.2800  0.3000  0.3200  0.3700  0.3700  0.3700  0.3700  0.3700  0.3700  0.3700  0.3300  0.3750  0.4200  0.4200  0.4200  0.4200  0.4200  0.4200  0.4200  0.4200  1.1000  1.1500  1.2000  1.2500  1.2500  1.2500  1.2500  1.2500  1.2500  1.2500  0.2838  0.3054  0.3288  0.3801  0.3799  0.3786  0.3770  0.3719  0.3719  0.3718
 1974 350    46   0.1100  0.1300  0.1500  0.2200  0.2200  0.2200  0.2200  0.2200  0.2200  0.2200  0.2800  0.3000  0.3200  0.3700  0.3700  0.3700  0.3700  0.3700  0.3700  0.3700  0.3300  0.3750  0.4200  0.4200  0.4200  0.4200  0.4200  0.4200  0.4200  0.4200  1.1000  1.1500  1.2000  1.2500  1.2500  1.2500  1.2500  1.2500  1.2500  1.2500  0.3039  0.3076  0.3282  0.3792  0.3795  0.3791  0.3780  0.3723  0.3721  0.3719
 1974 351    47   0.1100  0.1300  0.1500  0.2200  0.2200  0.2200  0.2200  0.2200  0.2200  0.2200  0.2800  0.3000  0.3200  0.3700  0.3700  0.3700  0.3700  0.3700  0.3700  0.3700  0.3300  0.3750  0.4200  0.4200  0.4200  0.4200  0.4200  0.4200  0.4200  0.4200  1.1000  1.1500  1.2000  1.2500  1.2500  1.2500  1.2500  1.2500  1.2500  1.2500  0.2900  0.3030  0.3236  0.3742  0.3745  0.3743  0.3738  0.3721  0.3719  0.3718
 1974 352    48   0.1100  0.1300  0.1500  0.2200  0.2200  0.2200  0.2200  0.2200  0.2200  0.2200  0.2800  0.3000  0.3200  0.3700  0.3700  0.3700  0.3700  0.3700  0.3700  0.3700  0.3300  0.3750  0.4200  0.4200  0.4200  0.4200  0.4200  0.4200  0.4200  0.4200  1.1000  1.1500  1.2000  1.2500  1.2500  1.2500  1.2500  1.2500  1.2500  1.2500  0.2854  0.3023  0.3229  0.3735  0.3739  0.3740  0.3739  0.3716  0.3717  0.3717
 1974 353    49   0.1100  0.1300  0.1500  0.2200  0.2200  0.2200  0.2200  0.2200  0.2200  0.2200  0.2800  0.3000  0.3200  0.3700  0.3700  0.3700  0.3700  0.3700  0.3700  0.3700  0.3300  0.3750  0.4200  0.4200  0.4200  0.4200  0.4200  0.4200  0.4200  0.4200  1.1000  1.1500  1.2000  1.2500  1.2500  1.2500  1.2500  1.2500  1.2500  1.2500  0.2821  0.3020  0.3227  0.3716  0.3719  0.3719  0.3719  0.3716  0.3717  0.3717
 1974 354    50   0.1100  0.1300  0.1500  0.2200  0.2200  0.2200  0.2200  0.2200  0.2200  0.2200  0.2800  0.3000  0.3200  0.3700  0.3700  0.3700  0.3700  0.3700  0.3700  0.3700  0.3300  0.3750  0.4200  0.4200  0.4200  0.4200  0.4200  0.4200  0.4200  0.4200  1.1000  1.1500  1.2000  1.2500  1.2500  1.2500  1.2500  1.2500  1.2500  1.2500  0.2810  0.3015  0.3224  0.3714  0.3717  0.3718  0.3717  0.3714  0.3716  0.3716
 1974 355    51   0.1100  0.1300  0.1500  0.2200  0.2200  0.2200  0.2200  0.2200  0.2200  0.2200  0.2800  0.3000  0.3200  0.3700  0.3700  0.3700  0.3700  0.3700  0.3700  0.3700  0.3300  0.3750  0.4200  0.4200  0.4200  0.4200  0.4200  0.4200  0.4200  0.4200  1.1000  1.1500  1.2000  1.2500  1.2500  1.2500  1.2500  1.2500  1.2500  1.2500  0.3023  0.3053  0.3238  0.3726  0.3721  0.3719  0.3718  0.3720  0.3716  0.3716
 1974 356    52   0.1100  0.1300  0.1500  0.2200  0.2200  0.2200  0.2200  0.2200  0.2200  0.2200  0.2800  0.3000  0.3200  0.3700  0.3700  0.3700  0.3700  0.3700  0.3700  0.3700  0.3300  0.3750  0.4200  0.4200  0.4200  0.4200  0.4200  0.4200  0.4200  0.4200  1.1000  1.1500  1.2000  1.2500  1.2500  1.2500  1.2500  1.2500  1.2500  1.2500  0.3064  0.3094  0.3266  0.3745  0.3733  0.3725  0.3721  0.3727  0.3715  0.3716
 1974 357    53   0.1100  0.1300  0.1500  0.2200  0.2200  0.2200  0.2200  0.2200  0.2200  0.2200  0.2800  0.3000  0.3200  0.3700  0.3700  0.3700  0.3700  0.3700  0.3700  0.3700  0.3300  0.3750  0.4200  0.4200  0.4200  0.4200  0.4200  0.4200  0.4200  0.4200  1.1000  1.1500  1.2000  1.2500  1.2500  1.2500  1.2500  1.2500  1.2500  1.2500  0.2971  0.3078  0.3271  0.3757  0.3744  0.3734  0.3727  0.3717  0.3715  0.3715
 1974 358    54   0.1100  0.1300  0.1500  0.2200  0.2200  0.2200  0.2200  0.2200  0.2200  0.2200  0.2800  0.3000  0.3200  0.3700  0.3700  0.3700  0.3700  0.3700  0.3700  0.3700  0.3300  0.3750  0.4200  0.4200  0.4200  0.4200  0.4200  0.4200  0.4200  0.4200  1.1000  1.1500  1.2000  1.2500  1.2500  1.2500  1.2500  1.2500  1.2500  1.2500  0.2967  0.3070  0.3270  0.3762  0.3752  0.3742  0.3734  0.3727  0.3714  0.3714
 1974 359    55   0.1100  0.1300  0.1500  0.2200  0.2200  0.2200  0.2200  0.2200  0.2200  0.2200  0.2800  0.3000  0.3200  0.3700  0.3700  0.3700  0.3700  0.3700  0.3700  0.3700  0.3300  0.3750  0.4200  0.4200  0.4200  0.4200  0.4200  0.4200  0.4200  0.4200  1.1000  1.1500  1.2000  1.2500  1.2500  1.2500  1.2500  1.2500  1.2500  1.2500  0.3074  0.3197  0.3333  0.3798  0.3775  0.3758  0.3746  0.3721  0.3718  0.3716
 1974 360    56   0.1100  0.1300  0.1500  0.2200  0.2200  0.2200  0.2200  0.2200  0.2200  0.2200  0.2800  0.3000  0.3200  0.3700  0.3700  0.3700  0.3700  0.3700  0.3700  0.3700  0.3300  0.3750  0.4200  0.4200  0.4200  0.4200  0.4200  0.4200  0.4200  0.4200  1.1000  1.1500  1.2000  1.2500  1.2500  1.2500  1.2500  1.2500  1.2500  1.2500  0.3064  0.3370  0.3633  0.3948  0.3877  0.3817  0.3781  0.3723  0.3720  0.3718
 1974 361    57   0.1100  0.1300  0.1500  0.2200  0.2200  0.2200  0.2200  0.2200  0.2200  0.2200  0.2800  0.3000  0.3200  0.3700  0.3700  0.3700  0.3700  0.3700  0.3700  0.3700  0.3300  0.3750  0.4200  0.4200  0.4200  0.4200  0.4200  0.4200  0.4200  0.4200  1.1000  1.1500  1.2000  1.2500  1.2500  1.2500  1.2500  1.2500  1.2500  1.2500  0.2953  0.3213  0.3522  0.3947  0.3948  0.3882  0.3831  0.3733  0.3726  0.3722
 1974 362    58   0.1100  0.1300  0.1500  0.2200  0.2200  0.2200  0.2200  0.2200  0.2200  0.2200  0.2800  0.3000  0.3200  0.3700  0.3700  0.3700  0.3700  0.3700  0.3700  0.3700  0.3300  0.3750  0.4200  0.4200  0.4200  0.4200  0.4200  0.4200  0.4200  0.4200  1.1000  1.1500  1.2000  1.2500  1.2500  1.2500  1.2500  1.2500  1.2500  1.2500  0.2893  0.3122  0.3421  0.3933  0.3939  0.3910  0.3870  0.3744  0.3735  0.3728
 1974 363    59   0.1100  0.1300  0.1500  0.2200  0.2200  0.2200  0.2200  0.2200  0.2200  0.2200  0.2800  0.3000  0.3200  0.3700  0.3700  0.3700  0.3700  0.3700  0.3700  0.3700  0.3300  0.3750  0.4200  0.4200  0.4200  0.4200  0.4200  0.4200  0.4200  0.4200  1.1000  1.1500  1.2000  1.2500  1.2500  1.2500  1.2500  1.2500  1.2500  1.2500  0.2851  0.3069  0.3344  0.3888  0.3913  0.3911  0.3890  0.3753  0.3743  0.3735
 1974 364    60   0.1100  0.1300  0.1500  0.2200  0.2200  0.2200  0.2200  0.2200  0.2200  0.2200  0.2800  0.3000  0.3200  0.3700  0.3700  0.3700  0.3700  0.3700  0.3700  0.3700  0.3300  0.3750  0.4200  0.4200  0.4200  0.4200  0.4200  0.4200  0.4200  0.4200  1.1000  1.1500  1.2000  1.2500  1.2500  1.2500  1.2500  1.2500  1.2500  1.2500  0.2807  0.3026  0.3267  0.3790  0.3803  0.3803  0.3793  0.3725  0.3720  0.3717
 1974 365    61   0.1100  0.1300  0.1500  0.2200  0.2200  0.2200  0.2200  0.2200  0.2200  0.2200  0.2800  0.3000  0.3200  0.3700  0.3700  0.3700  0.3700  0.3700  0.3700  0.3700  0.3300  0.3750  0.4200  0.4200  0.4200  0.4200  0.4200  0.4200  0.4200  0.4200  1.1000  1.1500  1.2000  1.2500  1.2500  1.2500  1.2500  1.2500  1.2500  1.2500  0.2798  0.3022  0.3231  0.3743  0.3750  0.3750  0.3745  0.3724  0.3720  0.3716
 1975 001    62   0.1100  0.1300  0.1500  0.2200  0.2200  0.2200  0.2200  0.2200  0.2200  0.2200  0.2800  0.3000  0.3200  0.3700  0.3700  0.3700  0.3700  0.3700  0.3700  0.3700  0.3300  0.3750  0.4200  0.4200  0.4200  0.4200  0.4200  0.4200  0.4200  0.4200  1.1000  1.1500  1.2000  1.2500  1.2500  1.2500  1.2500  1.2500  1.2500  1.2500  0.2969  0.3044  0.3237  0.3740  0.3745  0.3747  0.3746  0.3719  0.3719  0.3717
 1975 002    63   0.1100  0.1300  0.1500  0.2200  0.2200  0.2200  0.2200  0.2200  0.2200  0.2200  0.2800  0.3000  0.3200  0.3700  0.3700  0.3700  0.3700  0.3700  0.3700  0.3700  0.3300  0.3750  0.4200  0.4200  0.4200  0.4200  0.4200  0.4200  0.4200  0.4200  1.1000  1.1500  1.2000  1.2500  1.2500  1.2500  1.2500  1.2500  1.2500  1.2500  0.2879  0.3020  0.3217  0.3719  0.3721  0.3723  0.3722  0.3719  0.3719  0.3717
 1975 003    64   0.1100  0.1300  0.1500  0.2200  0.2200  0.2200  0.2200  0.2200  0.2200  0.2200  0.2800  0.3000  0.3200  0.3700  0.3700  0.3700  0.3700  0.3700  0.3700  0.3700  0.3300  0.3750  0.4200  0.4200  0.4200  0.4200  0.4200  0.4200  0.4200  0.4200  1.1000  1.1500  1.2000  1.2500  1.2500  1.2500  1.2500  1.2500  1.2500  1.2500  0.2829  0.3015  0.3214  0.3716  0.3720  0.3721  0.3721  0.3718  0.3718  0.3716
 1975 004    65   0.1100  0.1300  0.1500  0.2200  0.2200  0.2200  0.2200  0.2200  0.2200  0.2200  0.2800  0.3000  0.3200  0.3700  0.3700  0.3700  0.3700  0.3700  0.3700  0.3700  0.3300  0.3750  0.4200  0.4200  0.4200  0.4200  0.4200  0.4200  0.4200  0.4200  1.1000  1.1500  1.2000  1.2500  1.2500  1.2500  1.2500  1.2500  1.2500  1.2500  0.2814  0.3008  0.3210  0.3713  0.3717  0.3719  0.3720  0.3716  0.3717  0.3716
 1975 005    66   0.1100  0.1300  0.1500  0.2200  0.2200  0.2200  0.2200  0.2200  0.2200  0.2200  0.2800  0.3000  0.3200  0.3700  0.3700  0.3700  0.3700  0.3700  0.3700  0.3700  0.3300  0.3750  0.4200  0.4200  0.4200  0.4200  0.4200  0.4200  0.4200  0.4200  1.1000  1.1500  1.2000  1.2500  1.2500  1.2500  1.2500  1.2500  1.2500  1.2500  0.2805  0.3004  0.3207  0.3711  0.3715  0.3718  0.3719  0.3716  0.3716  0.3715
 1975 006    67   0.1100  0.1300  0.1500  0.2200  0.2200  0.2200  0.2200  0.2200  0.2200  0.2200  0.2800  0.3000  0.3200  0.3700  0.3700  0.3700  0.3700  0.3700  0.3700  0.3700  0.3300  0.3750  0.4200  0.4200  0.4200  0.4200  0.4200  0.4200  0.4200  0.4200  1.1000  1.1500  1.2000  1.2500  1.2500  1.2500  1.2500  1.2500  1.2500  1.2500  0.3072  0.3068  0.3238  0.3724  0.3720  0.3719  0.3719  0.3722  0.3716  0.3715
 1975 007    68   0.1100  0.1300  0.1500  0.2200  0.2200  0.2200  0.2200  0.2200  0.2200  0.2200  0.2800  0.3000  0.3200  0.3700  0.3700  0.3700  0.3700  0.3700  0.3700  0.3700  0.3300  0.3750  0.4200  0.4200  0.4200  0.4200  0.4200  0.4200  0.4200  0.4200  1.1000  1.1500  1.2000  1.2500  1.2500  1.2500  1.2500  1.2500  1.2500  1.2500  0.2959  0.3064  0.3250  0.3736  0.3727  0.3722  0.3720  0.3728  0.3715  0.3714
 1975 008    69   0.1100  0.1300  0.1500  0.2200  0.2200  0.2200  0.2200  0.2200  0.2200  0.2200  0.2800  0.3000  0.3200  0.3700  0.3700  0.3700  0.3700  0.3700  0.3700  0.3700  0.3300  0.3750  0.4200  0.4200  0.4200  0.4200  0.4200  0.4200  0.4200  0.4200  1.1000  1.1500  1.2000  1.2500  1.2500  1.2500  1.2500  1.2500  1.2500  1.2500  0.2873  0.3029  0.3223  0.3717  0.3726  0.3721  0.3719  0.3727  0.3715  0.3714
 1975 009    70   0.1100  0.1300  0.1500  0.2200  0.2200  0.2200  0.2200  0.2200  0.2200  0.2200  0.2800  0.3000  0.3200  0.3700  0.3700  0.3700  0.3700  0.3700  0.3700  0.3700  0.3300  0.3750  0.4200  0.4200  0.4200  0.4200  0.4200  0.4200  0.4200  0.4200  1.1000  1.1500  1.2000  1.2500  1.2500  1.2500  1.2500  1.2500  1.2500  1.2500  0.2834  0.3028  0.3223  0.3716  0.3726  0.3721  0.3719  0.3727  0.3715  0.3713
 1975 010    71   0.1100  0.1300  0.1500  0.2200  0.2200  0.2200  0.2200  0.2200  0.2200  0.2200  0.2800  0.3000  0.3200  0.3700  0.3700  0.3700  0.3700  0.3700  0.3700  0.3700  0.3300  0.3750  0.4200  0.4200  0.4200  0.4200  0.4200  0.4200  0.4200  0.4200  1.1000  1.1500  1.2000  1.2500  1.2500  1.2500  1.2500  1.2500  1.2500  1.2500  0.2827  0.3019  0.3221  0.3718  0.3722  0.3721  0.3720  0.3717  0.3716  0.3729
 1975 011    72   0.1100  0.1300  0.1500  0.2200  0.2200  0.2200  0.2200  0.2200  0.2200  0.2200  0.2800  0.3000  0.3200  0.3700  0.3700  0.3700  0.3700  0.3700  0.3700  0.3700  0.3300  0.3750  0.4200  0.4200  0.4200  0.4200  0.4200  0.4200  0.4200  0.4200  1.1000  1.1500  1.2000  1.2500  1.2500  1.2500  1.2500  1.2500  1.2500  1.2500  0.2820  0.3016  0.3219  0.3717  0.3720  0.3720  0.3719  0.3716  0.3715  0.3729
 1975 012    73   0.1100  0.1300  0.1500  0.2200  0.2200  0.2200  0.2200  0.2200  0.2200  0.2200  0.2800  0.3000  0.3200  0.3700  0.3700  0.3700  0.3700  0.3700  0.3700  0.3700  0.3300  0.3750  0.4200  0.4200  0.4200  0.4200  0.4200  0.4200  0.4200  0.4200  1.1000  1.1500  1.2000  1.2500  1.2500  1.2500  1.2500  1.2500  1.2500  1.2500  0.3071  0.3157  0.3288  0.3752  0.3736  0.3728  0.3723  0.3723  0.3715  0.3728
 1975 013    74   0.1100  0.1300  0.1500  0.2200  0.2200  0.2200  0.2200  0.2200  0.2200  0.2200  0.2800  0.3000  0.3200  0.3700  0.3700  0.3700  0.3700  0.3700  0.3700  0.3700  0.3300  0.3750  0.4200  0.4200  0.4200  0.4200  0.4200  0.4200  0.4200  0.4200  1.1000  1.1500  1.2000  1.2500  1.2500  1.2500  1.2500  1.2500  1.2500  1.2500  0.2923  0.3073  0.3240  0.3723  0.3716  0.3726  0.3722  0.3722  0.3714  0.3728
 1975 014    75   0.1100  0.1300  0.1500  0.2200  0.2200  0.2200  0.2200  0.2200  0.2200  0.2200  0.2800  0.3000  0.3200  0.3700  0.3700  0.3700  0.3700  0.3700  0.3700  0.3700  0.3300  0.3750  0.4200  0.4200  0.4200  0.4200  0.4200  0.4200  0.4200  0.4200  1.1000  1.1500  1.2000  1.2500  1.2500  1.2500  1.2500  1.2500  1.2500  1.2500  0.3045  0.3084  0.3262  0.3742  0.3728  0.3727  0.3724  0.3715  0.3729  0.3727
 1975 015    76   0.1100  0.1300  0.1500  0.2200  0.2200  0.2200  0.2200  0.2200  0.2200  0.2200  0.2800  0.3000  0.3200  0.3700  0.3700  0.3700  0.3700  0.3700  0.3700  0.3700  0.3300  0.3750  0.4200  0.4200  0.4200  0.4200  0.4200  0.4200  0.4200  0.4200  1.1000  1.1500  1.2000  1.2500  1.2500  1.2500  1.2500  1.2500  1.2500  1.2500  0.3053  0.3175  0.3318  0.3778  0.3752  0.3738  0.3730  0.3724  0.3727  0.3726
 1975 016    77   0.1100  0.1300  0.1500  0.2200  0.2200  0.2200  0.2200  0.2200  0.2200  0.2200  0.2800  0.3000  0.3200  0.3700  0.3700  0.3700  0.3700  0.3700  0.3700  0.3700  0.3300  0.3750  0.4200  0.4200  0.4200  0.4200  0.4200  0.4200  0.4200  0.4200  1.1000  1.1500  1.2000  1.2500  1.2500  1.2500  1.2500  1.2500  1.2500  1.2500  0.3061  0.3236  0.3376  0.3826  0.3788  0.3762  0.3746  0.3718  0.3722  0.3724
 1975 017    78   0.1100  0.1300  0.1500  0.2200  0.2200  0.2200  0.2200  0.2200  0.2200  0.2200  0.2800  0.3000  0.3200  0.3700  0.3700  0.3700  0.3700  0.3700  0.3700  0.3700  0.3300  0.3750  0.4200  0.4200  0.4200  0.4200  0.4200  0.4200  0.4200  0.4200  1.1000  1.1500  1.2000  1.2500  1.2500  1.2500  1.2500  1.2500  1.2500  1.2500  0.3061  0.3268  0.3421  0.3873  0.3829  0.3795  0.3770  0.3720  0.3721  0.3722
 1975 018    79   0.1100  0.1300  0.1500  0.2200  0.2200  0.2200  0.2200  0.2200  0.2200  0.2200  0.2800  0.3000  0.3200  0.3700  0.3700  0.3700  0.3700  0.3700  0.3700  0.3700  0.3300  0.3750  0.4200  0.4200  0.4200  0.4200  0.4200  0.4200  0.4200  0.4200  1.1000  1.1500  1.2000  1.2500  1.2500  1.2500  1.2500  1.2500  1.2500  1.2500  0.3074  0.3374  0.3618  0.3950  0.3935  0.3865  0.3818  0.3730  0.3725  0.3724
 1975 019    80   0.1100  0.1300  0.1500  0.2200  0.2200  0.2200  0.2200  0.2200  0.2200  0.2200  0.2800  0.3000  0.3200  0.3700  0.3700  0.3700  0.3700  0.3700  0.3700  0.3700  0.3300  0.3750  0.4200  0.4200  0.4200  0.4200  0.4200  0.4200  0.4200  0.4200  1.1000  1.1500  1.2000  1.2500  1.2500  1.2500  1.2500  1.2500  1.2500  1.2500  0.3052  0.3364  0.3693  0.3945  0.3946  0.3947  0.3947  0.3772  0.3748  0.3735
 1975 020    81   0.1100  0.1300  0.1500  0.2200  0.2200  0.2200  0.2200  0.2200  0.2200  0.2200  0.2800  0.3000  0.3200  0.3700  0.3700  0.3700  0.3700  0.3700  0.3700  0.3700  0.3300  0.3750  0.4200  0.4200  0.4200  0.4200  0.4200  0.4200  0.4200  0.4200  1.1000  1.1500  1.2000  1.2500  1.2500  1.2500  1.2500  1.2500  1.2500  1.2500  0.3069  0.3372  0.3698  0.3949  0.3949  0.3949  0.3949  0.3943  0.3845  0.3790
 1975 021    82   0.1100  0.1300  0.1500  0.2200  0.2200  0.2200  0.2200  0.2200  0.2200  0.2200  0.2800  0.3000  0.3200  0.3700  0.3700  0.3700  0.3700  0.3700  0.3700  0.3700  0.3300  0.3750  0.4200  0.4200  0.4200  0.4200  0.4200  0.4200  0.4200  0.4200  1.1000  1.1500  1.2000  1.2500  1.2500  1.2500  1.2500  1.2500  1.2500  1.2500  0.3050  0.3364  0.3693  0.3945  0.3946  0.3947  0.3947  0.3917  0.3881  0.3835
 1975 022    83   0.1100  0.1300  0.1500  0.2200  0.2200  0.2200  0.2200  0.2200  0.2200  0.2200  0.2800  0.3000  0.3200  0.3700  0.3700  0.3700  0.3700  0.3700  0.3700  0.3700  0.3300  0.3750  0.4200  0.4200  0.4200  0.4200  0.4200  0.4200  0.4200  0.4200  1.1000  1.1500  1.2000  1.2500  1.2500  1.2500  1.2500  1.2500  1.2500  1.2500  0.3074  0.3345  0.3619  0.3950  0.3950  0.3950  0.3950  0.3876  0.3878  0.3856
 1975 023    84   0.1100  0.1300  0.1500  0.2200  0.2200  0.2200  0.2200  0.2200  0.2200  0.2200  0.2800  0.3000  0.3200  0.3700  0.3700  0.3700  0.3700  0.3700  0.3700  0.3700  0.3300  0.3750  0.4200  0.4200  0.4200  0.4200  0.4200  0.4200  0.4200  0.4200  1.1000  1.1500  1.2000  1.2500  1.2500  1.2500  1.2500  1.2500  1.2500  1.2500  0.3023  0.3214  0.3516  0.3947  0.3947  0.3948  0.3948  0.3840  0.3859  0.3857
 1975 024    85   0.1100  0.1300  0.1500  0.2200  0.2200  0.2200  0.2200  0.2200  0.2200  0.2200  0.2800  0.3000  0.3200  0.3700  0.3700  0.3700  0.3700  0.3700  0.3700  0.3700  0.3300  0.3750  0.4200  0.4200  0.4200  0.4200  0.4200  0.4200  0.4200  0.4200  1.1000  1.1500  1.2000  1.2500  1.2500  1.2500  1.2500  1.2500  1.2500  1.2500  0.3051  0.3364  0.3568  0.3945  0.3946  0.3947  0.3947  0.3829  0.3843  0.3849
 1975 025    86   0.1100  0.1300  0.1500  0.2200  0.2200  0.2200  0.2200  0.2200  0.2200  0.2200  0.2800  0.3000  0.3200  0.3700  0.3700  0.3700  0.3700  0.3700  0.3700  0.3700  0.3300  0.3750  0.4200  0.4200  0.4200  0.4200  0.4200  0.4200  0.4200  0.4200  1.1000  1.1500  1.2000  1.2500  1.2500  1.2500  1.2500  1.2500  1.2500  1.2500  0.3034  0.3227  0.3496  0.3947  0.3948  0.3948  0.3948  0.3810  0.3826  0.3837
 1975 026    87   0.1100  0.1300  0.1500  0.2200  0.2200  0.2200  0.2200  0.2200  0.2200  0.2200  0.2800  0.3000  0.3200  0.3700  0.3700  0.3700  0.3700  0.3700  0.3700  0.3700  0.3300  0.3750  0.4200  0.4200  0.4200  0.4200  0.4200  0.4200  0.4200  0.4200  1.1000  1.1500  1.2000  1.2500  1.2500  1.2500  1.2500  1.2500  1.2500  1.2500  0.3047  0.3362  0.3692  0.3944  0.3945  0.3946  0.3947  0.3889  0.3857  0.3846
 1975 027    88   0.1100  0.1300  0.1500  0.2200  0.2200  0.2200  0.2200  0.2200  0.2200  0.2200  0.2800  0.3000  0.3200  0.3700  0.3700  0.3700  0.3700  0.3700  0.3700  0.3700  0.3300  0.3750  0.4200  0.4200  0.4200  0.4200  0.4200  0.4200  0.4200  0.4200  1.1000  1.1500  1.2000  1.2500  1.2500  1.2500  1.2500  1.2500  1.2500  1.2500  0.3072  0.3374  0.3699  0.3949  0.3949  0.3950  0.3950  0.3880  0.3868  0.3857
 1975 028    89   0.1100  0.1300  0.1500  0.2200  0.2200  0.2200  0.2200  0.2200  0.2200  0.2200  0.2800  0.3000  0.3200  0.3700  0.3700  0.3700  0.3700  0.3700  0.3700  0.3700  0.3300  0.3750  0.4200  0.4200  0.4200  0.4200  0.4200  0.4200  0.4200  0.4200  1.1000  1.1500  1.2000  1.2500  1.2500  1.2500  1.2500  1.2500  1.2500  1.2500  0.3073  0.3374  0.3699  0.3950  0.3950  0.3950  0.3950  0.3938  0.3903  0.3880
 1975 029    90   0.1100  0.1300  0.1500  0.2200  0.2200  0.2200  0.2200  0.2200  0.2200  0.2200  0.2800  0.3000  0.3200  0.3700  0.3700  0.3700  0.3700  0.3700  0.3700  0.3700  0.3300  0.3750  0.4200  0.4200  0.4200  0.4200  0.4200  0.4200  0.4200  0.4200  1.1000  1.1500  1.2000  1.2500  1.2500  1.2500  1.2500  1.2500  1.2500  1.2500  0.3070  0.3299  0.3599  0.3949  0.3949  0.3949  0.3949  0.3885  0.3894  0.3887
 1975 030    91   0.1100  0.1300  0.1500  0.2200  0.2200  0.2200  0.2200  0.2200  0.2200  0.2200  0.2800  0.3000  0.3200  0.3700  0.3700  0.3700  0.3700  0.3700  0.3700  0.3700  0.3300  0.3750  0.4200  0.4200  0.4200  0.4200  0.4200  0.4200  0.4200  0.4200  1.1000  1.1500  1.2000  1.2500  1.2500  1.2500  1.2500  1.2500  1.2500  1.2500  0.3057  0.3200  0.3498  0.3946  0.3947  0.3947  0.3948  0.3841  0.3867  0.3876
 1975 031    92   0.1100  0.1300  0.1500  0.2200  0.2200  0.2200  0.2200  0.2200  0.2200  0.2200  0.2800  0.3000  0.3200  0.3700  0.3700  0.3700  0.3700  0.3700  0.3700  0.3700  0.3300  0.3750  0.4200  0.4200  0.4200  0.4200  0.4200  0.4200  0.4200  0.4200  1.1000  1.1500  1.2000  1.2500  1.2500  1.2500  1.2500  1.2500  1.2500  1.2500  0.3063  0.3265  0.3481  0.3947  0.3948  0.3948  0.3948  0.3815  0.3840  0.3858
 1975 032    93   0.1100  0.1300  0.1500  0.2200  0.2200  0.2200  0.2200  0.2200  0.2200  0.2200  0.2800  0.3000  0.3200  0.3700  0.3700  0.3700  0.3700  0.3700  0.3700  0.3700  0.3300  0.3750  0.4200  0.4200  0.4200  0.4200  0.4200  0.4200  0.4200  0.4200  1.1000  1.1500  1.2000  1.2500  1.2500  1.2500  1.2500  1.2500  1.2500  1.2500  0.2938  0.3156  0.3417  0.3931  0.3938  0.3942  0.3944  0.3797  0.3818  0.3838
 1975 033    94   0.1100  0.1300  0.1500  0.2200  0.2200  0.2200  0.2200  0.2200  0.2200  0.2200  0.2800  0.3000  0.3200  0.3700  0.3700  0.3700  0.3700  0.3700  0.3700  0.3700  0.3300  0.3750  0.4200  0.4200  0.4200  0.4200  0.4200  0.4200  0.4200  0.4200  1.1000  1.1500  1.2000  1.2500  1.2500  1.2500  1.2500  1.2500  1.2500  1.2500  0.2888  0.3094  0.3355  0.3892  0.3914  0.3928  0.3935  0.3787  0.3802  0.3820
 1975 034    95   0.1100  0.1300  0.1500  0.2200  0.2200  0.2200  0.2200  0.2200  0.2200  0.2200  0.2800  0.3000  0.3200  0.3700  0.3700  0.3700  0.3700  0.3700  0.3700  0.3700  0.3300  0.3750  0.4200  0.4200  0.4200  0.4200  0.4200  0.4200  0.4200  0.4200  1.1000  1.1500  1.2000  1.2500  1.2500  1.2500  1.2500  1.2500  1.2500  1.2500  0.2836  0.3043  0.3275  0.3794  0.3806  0.3813  0.3817  0.3743  0.3751  0.3759
 1975 035    96   0.1100  0.1300  0.1500  0.2200  0.2200  0.2200  0.2200  0.2200  0.2200  0.2200  0.2800  0.3000  0.3200  0.3700  0.3700  0.3700  0.3700  0.3700  0.3700  0.3700  0.3300  0.3750  0.4200  0.4200  0.4200  0.4200  0.4200  0.4200  0.4200  0.4200  1.1000  1.1500  1.2000  1.2500  1.2500  1.2500  1.2500  1.2500  1.2500  1.2500  0.2814  0.3020  0.3236  0.3746  0.3752  0.3756  0.3758  0.3721  0.3725  0.3729
 1975 036    97   0.1100  0.1300  0.1500  0.2200  0.2200  0.2200  0.2200  0.2200  0.2200  0.2200  0.2800  0.3000  0.3200  0.3700  0.3700  0.3700  0.3700  0.3700  0.3700  0.3700  0.3300  0.3750  0.4200  0.4200  0.4200  0.4200  0.4200  0.4200  0.4200  0.4200  1.1000  1.1500  1.2000  1.2500  1.2500  1.2500  1.2500  1.2500  1.2500  1.2500  0.2801  0.3014  0.3214  0.3720  0.3723  0.3726  0.3727  0.3720  0.3724  0.3729
 1975 037    98   0.1100  0.1300  0.1500  0.2200  0.2200  0.2200  0.2200  0.2200  0.2200  0.2200  0.2800  0.3000  0.3200  0.3700  0.3700  0.3700  0.3700  0.3700  0.3700  0.3700  0.3300  0.3750  0.4200  0.4200  0.4200  0.4200  0.4200  0.4200  0.4200  0.4200  1.1000  1.1500  1.2000  1.2500  1.2500  1.2500  1.2500  1.2500  1.2500  1.2500  0.2788  0.3008  0.3211  0.3717  0.3721  0.3724  0.3726  0.3719  0.3723  0.3728
 1975 038    99   0.1100  0.1300  0.1500  0.2200  0.2200  0.2200  0.2200  0.2200  0.2200  0.2200  0.2800  0.3000  0.3200  0.3700  0.3700  0.3700  0.3700  0.3700  0.3700  0.3700  0.3300  0.3750  0.4200  0.4200  0.4200  0.4200  0.4200  0.4200  0.4200  0.4200  1.1000  1.1500  1.2000  1.2500  1.2500  1.2500  1.2500  1.2500  1.2500  1.2500  0.2762  0.2996  0.3203  0.3711  0.3716  0.3720  0.3722  0.3716  0.3721  0.3726
 1975 039   100   0.1100  0.1300  0.1500  0.2200  0.2200  0.2200  0.2200  0.2200  0.2200  0.2200  0.2800  0.3000  0.3200  0.3700  0.3700  0.3700  0.3700  0.3700  0.3700  0.3700  0.3300  0.3750  0.4200  0.4200  0.4200  0.4200  0.4200  0.4200  0.4200  0.4200  1.1000  1.1500  1.2000  1.2500  1.2500  1.2500  1.2500  1.2500  1.2500  1.2500  0.2741  0.2986  0.3196  0.3706  0.3712  0.3717  0.3719  0.3714  0.3720  0.3725
 1975 040   101   0.1100  0.1300  0.1500  0.2200  0.2200  0.2200  0.2200  0.2200  0.2200  0.2200  0.2800  0.3000  0.3200  0.3700  0.3700  0.3700  0.3700  0.3700  0.3700  0.3700  0.3300  0.3750  0.4200  0.4200  0.4200  0.4200  0.4200  0.4200  0.4200  0.4200  1.1000  1.1500  1.2000  1.2500  1.2500  1.2500  1.2500  1.2500  1.2500  1.2500  0.2729  0.2971  0.3187  0.3698  0.3706  0.3712  0.3715  0.3711  0.3717  0.3723
 1975 041   102   0.1100  0.1300  0.1500  0.2200  0.2200  0.2200  0.2200  0.2200  0.2200  0.2200  0.2800  0.3000  0.3200  0.3700  0.3700  0.3700  0.3700  0.3700  0.3700  0.3700  0.3300  0.3750  0.4200  0.4200  0.4200  0.4200  0.4200  0.4200  0.4200  0.4200  1.1000  1.1500  1.2000  1.2500  1.2500  1.2500  1.2500  1.2500  1.2500  1.2500  0.2960  0.3016  0.3204  0.3696  0.3704  0.3710  0.3713  0.3710  0.3716  0.3722
 1975 042   103   0.1100  0.1300  0.1500  0.2200  0.2200  0.2200  0.2200  0.2200  0.2200  0.2200  0.2800  0.3000  0.3200  0.3700  0.3700  0.3700  0.3700  0.3700  0.3700  0.3700  0.3300  0.3750  0.4200  0.4200  0.4200  0.4200  0.4200  0.4200  0.4200  0.4200  1.1000  1.1500  1.2000  1.2500  1.2500  1.2500  1.2500  1.2500  1.2500  1.2500  0.3068  0.3201  0.3302  0.3748  0.3726  0.3718  0.3715  0.3715  0.3716  0.3722
 1975 043   104   0.1100  0.1300  0.1500  0.2200  0.2200  0.2200  0.2200  0.2200  0.2200  0.2200  0.2800  0.3000  0.3200  0.3700  0.3700  0.3700  0.3700  0.3700  0.3700  0.3700  0.3300  0.3750  0.4200  0.4200  0.4200  0.4200  0.4200  0.4200  0.4200  0.4200  1.1000  1.1500  1.2000  1.2500  1.2500  1.2500  1.2500  1.2500  1.2500  1.2500  0.3062  0.3173  0.3337  0.3792  0.3758  0.3737  0.3725  0.3723  0.3715  0.3721
 1975 044   105   0.1100  0.1300  0.1500  0.2200  0.2200  0.2200  0.2200  0.2200  0.2200  0.2200  0.2800  0.3000  0.3200  0.3700  0.3700  0.3700  0.3700  0.3700  0.3700  0.3700  0.3300  0.3750  0.4200  0.4200  0.4200  0.4200  0.4200  0.4200  0.4200  0.4200  1.1000  1.1500  1.2000  1.2500  1.2500  1.2500  1.2500  1.2500  1.2500  1.2500  0.3034  0.3130  0.3332  0.3810  0.3783  0.3759  0.3741  0.3717  0.3716  0.3718
 1975 045   106   0.1100  0.1300  0.1500  0.2200  0.2200  0.2200  0.2200  0.2200  0.2200  0.2200  0.2800  0.3000  0.3200  0.3700  0.3700  0.3700  0.3700  0.3700  0.3700  0.3700  0.3300  0.3750  0.4200  0.4200  0.4200  0.4200  0.4200  0.4200  0.4200  0.4200  1.1000  1.1500  1.2000  1.2500  1.2500  1.2500  1.2500  1.2500  1.2500  1.2500  0.3058  0.3367  0.3695  0.3946  0.3947  0.3928  0.3834  0.3730  0.3722  0.3720
 1975 046   107   0.1100  0.1300  0.1500  0.2200  0.2200  0.2200  0.2200  0.2200  0.2200  0.2200  0.2800  0.3000  0.3200  0.3700  0.3700  0.3700  0.3700  0.3700  0.3700  0.3700  0.3300  0.3750  0.4200  0.4200  0.4200  0.4200  0.4200  0.4200  0.4200  0.4200  1.1000  1.1500  1.2000  1.2500  1.2500  1.2500  1.2500  1.2500  1.2500  1.2500  0.2947  0.3212  0.3553  0.3949  0.3949  0.3949  0.3929  0.3753  0.3737  0.3728
 1975 047   108   0.1100  0.1300  0.1500  0.2200  0.2200  0.2200  0.2200  0.2200  0.2200  0.2200  0.2800  0.3000  0.3200  0.3700  0.3700  0.3700  0.3700  0.3700  0.3700  0.3700  0.3300  0.3750  0.4200  0.4200  0.4200  0.4200  0.4200  0.4200  0.4200  0.4200  1.1000  1.1500  1.2000  1.2500  1.2500  1.2500  1.2500  1.2500  1.2500  1.2500  0.2943  0.3132  0.3441  0.3944  0.3945  0.3946  0.3937  0.3765  0.3751  0.3739
 1975 048   109   0.1100  0.1300  0.1500  0.2200  0.2200  0.2200  0.2200  0.2200  0.2200  0.2200  0.2800  0.3000  0.3200  0.3700  0.3700  0.3700  0.3700  0.3700  0.3700  0.3700  0.3300  0.3750  0.4200  0.4200  0.4200  0.4200  0.4200  0.4200  0.4200  0.4200  1.1000  1.1500  1.2000  1.2500  1.2500  1.2500  1.2500  1.2500  1.2500  1.2500  0.3068  0.3140  0.3390  0.3916  0.3930  0.3938  0.3937  0.3771  0.3761  0.3750
 1975 049   110   0.1100  0.1300  0.1500  0.2200  0.2200  0.2200  0.2200  0.2200  0.2200  0.2200  0.2800  0.3000  0.3200  0.3700  0.3700  0.3700  0.3700  0.3700  0.3700  0.3700  0.3300  0.3750  0.4200  0.4200  0.4200  0.4200  0.4200  0.4200  0.4200  0.4200  1.1000  1.1500  1.2000  1.2500  1.2500  1.2500  1.2500  1.2500  1.2500  1.2500  0.3060  0.3368  0.3557  0.3947  0.3947  0.3948  0.3948  0.3781  0.3771  0.3760
 1975 050   111   0.1100  0.1300  0.1500  0.2200  0.2200  0.2200  0.2200  0.2200  0.2200  0.2200  0.2800  0.3000  0.3200  0.3700  0.3700  0.3700  0.3700  0.3700  0.3700  0.3700  0.3300  0.3750  0.4200  0.4200  0.4200  0.4200  0.4200  0.4200  0.4200  0.4200  1.1000  1.1500  1.2000  1.2500  1.2500  1.2500  1.2500  1.2500  1.2500  1.2500  0.2915  0.3197  0.3474  0.3940  0.3942  0.3944  0.3945  0.3783  0.3776  0.3767
 1975 051   112   0.1100  0.1300  0.1500  0.2200  0.2200  0.2200  0.2200  0.2200  0.2200  0.2200  0.2800  0.3000  0.3200  0.3700  0.3700  0.3700  0.3700  0.3700  0.3700  0.3700  0.3300  0.3750  0.4200  0.4200  0.4200  0.4200  0.4200  0.4200  0.4200  0.4200  1.1000  1.1500  1.2000  1.2500  1.2500  1.2500  1.2500  1.2500  1.2500  1.2500  0.2816  0.3079  0.3324  0.3810  0.3813  0.3815  0.3816  0.3738  0.3735  0.3731
 1975 052   113   0.1100  0.1300  0.1500  0.2200  0.2200  0.2200  0.2200  0.2200  0.2200  0.2200  0.2800  0.3000  0.3200  0.3700  0.3700  0.3700  0.3700  0.3700  0.3700  0.3700  0.3300  0.3750  0.4200  0.4200  0.4200  0.4200  0.4200  0.4200  0.4200  0.4200  1.1000  1.1500  1.2000  1.2500  1.2500  1.2500  1.2500  1.2500  1.2500  1.2500  0.2776  0.3021  0.3250  0.3745  0.3748  0.3751  0.3753  0.3715  0.3715  0.3713
 1975 053   114   0.1100  0.1300  0.1500  0.2200  0.2200  0.2200  0.2200  0.2200  0.2200  0.2200  0.2800  0.3000  0.3200  0.3700  0.3700  0.3700  0.3700  0.3700  0.3700  0.3700  0.3300  0.3750  0.4200  0.4200  0.4200  0.4200  0.4200  0.4200  0.4200  0.4200  1.1000  1.1500  1.2000  1.2500  1.2500  1.2500  1.2500  1.2500  1.2500  1.2500  0.2758  0.3003  0.3213  0.3725  0.3734  0.3740  0.3744  0.3712  0.3712  0.3726
 1975 054   115   0.1100  0.1300  0.1500  0.2200  0.2200  0.2200  0.2200  0.2200  0.2200  0.2200  0.2800  0.3000  0.3200  0.3700  0.3700  0.3700  0.3700  0.3700  0.3700  0.3700  0.3300  0.3750  0.4200  0.4200  0.4200  0.4200  0.4200  0.4200  0.4200  0.4200  1.1000  1.1500  1.2000  1.2500  1.2500  1.2500  1.2500  1.2500  1.2500  1.2500  0.2741  0.2985  0.3201  0.3716  0.3709  0.3722  0.3731  0.3721  0.3710  0.3723
 1975 055   116   0.1100  0.1300  0.1500  0.2200  0.2200  0.2200  0.2200  0.2200  0.2200  0.2200  0.2800  0.3000  0.3200  0.3700  0.3700  0.3700  0.3700  0.3700  0.3700  0.3700  0.3300  0.3750  0.4200  0.4200  0.4200  0.4200  0.4200  0.4200  0.4200  0.4200  1.1000  1.1500  1.2000  1.2500  1.2500  1.2500  1.2500  1.2500  1.2500  1.2500  0.2711  0.2962  0.3185  0.3704  0.3699  0.3714  0.3708  0.3721  0.3706  0.3720
 1975 056   117   0.1100  0.1300  0.1500  0.2200  0.2200  0.2200  0.2200  0.2200  0.2200  0.2200  0.2800  0.3000  0.3200  0.3700  0.3700  0.3700  0.3700  0.3700  0.3700  0.3700  0.3300  0.3750  0.4200  0.4200  0.4200  0.4200  0.4200  0.4200  0.4200  0.4200  1.1000  1.1500  1.2000  1.2500  1.2500  1.2500  1.2500  1.2500  1.2500  1.2500  0.2701  0.2957  0.3182  0.3701  0.3697  0.3712  0.3707  0.3720  0.3705  0.3720
 1975 057   118   0.1100  0.1300  0.1500  0.2200  0.2200  0.2200  0.2200  0.2200  0.2200  0.2200  0.2800  0.3000  0.3200  0.3700  0.3700  0.3700  0.3700  0.3700  0.3700  0.3700  0.3300  0.3750  0.4200  0.4200  0.4200  0.4200  0.4200  0.4200  0.4200  0.4200  1.1000  1.1500  1.2000  1.2500  1.2500  1.2500  1.2500  1.2500  1.2500  1.2500  0.2677  0.2936  0.3168  0.3690  0.3687  0.3705  0.3700  0.3715  0.3702  0.3717
 1975 058   119   0.1100  0.1300  0.1500  0.2200  0.2200  0.2200  0.2200  0.2200  0.2200  0.2200  0.2800  0.3000  0.3200  0.3700  0.3700  0.3700  0.3700  0.3700  0.3700  0.3700  0.3300  0.3750  0.4200  0.4200  0.4200  0.4200  0.4200  0.4200  0.4200  0.4200  1.1000  1.1500  1.2000  1.2500  1.2500  1.2500  1.2500  1.2500  1.2500  1.2500  0.2617  0.2908  0.3149  0.3674  0.3674  0.3695  0.3691  0.3709  0.3697  0.3713
 1975 059   120   0.1100  0.1300  0.1500  0.2200  0.2200  0.2200  0.2200  0.2200  0.2200  0.2200  0.2800  0.3000  0.3200  0.3700  0.3700  0.3700  0.3700  0.3700  0.3700  0.3700  0.3300  0.3750  0.4200  0.4200  0.4200  0.4200  0.4200  0.4200  0.4200  0.4200  1.1000  1.1500  1.2000  1.2500  1.2500  1.2500  1.2500  1.2500  1.2500  1.2500  0.2568  0.2884  0.3133  0.3661  0.3663  0.3686  0.3683  0.3704  0.3693  0.3710
 1975 060   121   0.1100  0.1300  0.1500  0.2200  0.2200  0.2200  0.2200  0.2200  0.2200  0.2200  0.2800  0.3000  0.3200  0.3700  0.3700  0.3700  0.3700  0.3700  0.3700  0.3700  0.3300  0.3750  0.4200  0.4200  0.4200  0.4200  0.4200  0.4200  0.4200  0.4200  1.1000  1.1500  1.2000  1.2500  1.2500  1.2500  1.2500  1.2500  1.2500  1.2500  0.2542  0.2871  0.3124  0.3654  0.3658  0.3681  0.3679  0.3701  0.3691  0.3708
 1975 061   122   0.1100  0.1300  0.1500  0.2200  0.2200  0.2200  0.2200  0.2200  0.2200  0.2200  0.2800  0.3000  0.3200  0.3700  0.3700  0.3700  0.3700  0.3700  0.3700  0.3700  0.3300  0.3750  0.4200  0.4200  0.4200  0.4200  0.4200  0.4200  0.4200  0.4200  1.1000  1.1500  1.2000  1.2500  1.2500  1.2500  1.2500  1.2500  1.2500  1.2500  0.3030  0.2964  0.3116  0.3648  0.3652  0.3677  0.3675  0.3699  0.3689  0.3706
 1975 062   123   0.1100  0.1300  0.1500  0.2200  0.2200  0.2200  0.2200  0.2200  0.2200  0.2200  0.2800  0.3000  0.3200  0.3700  0.3700  0.3700  0.3700  0.3700  0.3700  0.3700  0.3300  0.3750  0.4200  0.4200  0.4200  0.4200  0.4200  0.4200  0.4200  0.4200  1.1000  1.1500  1.2000  1.2500  1.2500  1.2500  1.2500  1.2500  1.2500  1.2500  0.2920  0.3012  0.3108  0.3642  0.3647  0.3673  0.3671  0.3696  0.3687  0.3705
 1975 063   124   0.1100  0.1300  0.1500  0.2200  0.2200  0.2200  0.2200  0.2200  0.2200  0.2200  0.2800  0.3000  0.3200  0.3700  0.3700  0.3700  0.3700  0.3700  0.3700  0.3700  0.3300  0.3750  0.4200  0.4200  0.4200  0.4200  0.4200  0.4200  0.4200  0.4200  1.1000  1.1500  1.2000  1.2500  1.2500  1.2500  1.2500  1.2500  1.2500  1.2500  0.3036  0.3289  0.3296  0.3715  0.3664  0.3667  0.3666  0.3693  0.3685  0.3702
 1975 064   125   0.1100  0.1300  0.1500  0.2200  0.2200  0.2200  0.2200  0.2200  0.2200  0.2200  0.2800  0.3000  0.3200  0.3700  0.3700  0.3700  0.3700  0.3700  0.3700  0.3700  0.3300  0.3750  0.4200  0.4200  0.4200  0.4200  0.4200  0.4200  0.4200  0.4200  1.1000  1.1500  1.2000  1.2500  1.2500  1.2500  1.2500  1.2500  1.2500  1.2500  0.2928  0.3167  0.3330  0.3772  0.3717  0.3684  0.3664  0.3692  0.3684  0.3702
 1975 065   126   0.1100  0.1300  0.1500  0.2200  0.2200  0.2200  0.2200  0.2200  0.2200  0.2200  0.2800  0.3000  0.3200  0.3700  0.3700  0.3700  0.3700  0.3700  0.3700  0.3700  0.3300  0.3750  0.4200  0.4200  0.4200  0.4200  0.4200  0.4200  0.4200  0.4200  1.1000  1.1500  1.2000  1.2500  1.2500  1.2500  1.2500  1.2500  1.2500  1.2500  0.3058  0.3303  0.3416  0.3842  0.3778  0.3730  0.3694  0.3690  0.3683  0.3701
 1975 066   127   0.1100  0.1300  0.1500  0.2200  0.2200  0.2200  0.2200  0.2200  0.2200  0.2200  0.2800  0.3000  0.3200  0.3700  0.3700  0.3700  0.3700  0.3700  0.3700  0.3700  0.3300  0.3750  0.4200  0.4200  0.4200  0.4200  0.4200  0.4200  0.4200  0.4200  1.1000  1.1500  1.2000  1.2500  1.2500  1.2500  1.2500  1.2500  1.2500  1.2500  0.3052  0.3364  0.3645  0.3944  0.3906  0.3817  0.3754  0.3707  0.3681  0.3699
 1975 067   128   0.1100  0.1300  0.1500  0.2200  0.2200  0.2200  0.2200  0.2200  0.2200  0.2200  0.2800  0.3000  0.3200  0.3700  0.3700  0.3700  0.3700  0.3700  0.3700  0.3700  0.3300  0.3750  0.4200  0.4200  0.4200  0.4200  0.4200  0.4200  0.4200  0.4200  1.1000  1.1500  1.2000  1.2500  1.2500  1.2500  1.2500  1.2500  1.2500  1.2500  0.3055  0.3365  0.3693  0.3945  0.3946  0.3947  0.3947  0.3848  0.3764  0.3731
 1975 068   129   0.1100  0.1300  0.1500  0.2200  0.2200  0.2200  0.2200  0.2200  0.2200  0.2200  0.2800  0.3000  0.3200  0.3700  0.3700  0.3700  0.3700  0.3700  0.3700  0.3700  0.3300  0.3750  0.4200  0.4200  0.4200  0.4200  0.4200  0.4200  0.4200  0.4200  1.1000  1.1500  1.2000  1.2500  1.2500  1.2500  1.2500  1.2500  1.2500  1.2500  0.3055  0.3230  0.3560  0.3946  0.3946  0.3947  0.3947  0.3831  0.3797  0.3764
 1975 069   130   0.1100  0.1300  0.1500  0.2200  0.2200  0.2200  0.2200  0.2200  0.2200  0.2200  0.2800  0.3000  0.3200  0.3700  0.3700  0.3700  0.3700  0.3700  0.3700  0.3700  0.3300  0.3750  0.4200  0.4200  0.4200  0.4200  0.4200  0.4200  0.4200  0.4200  1.1000  1.1500  1.2000  1.2500  1.2500  1.2500  1.2500  1.2500  1.2500  1.2500  0.2941  0.3141  0.3450  0.3947  0.3946  0.3946  0.3946  0.3806  0.3801  0.3782
 1975 070   131   0.1100  0.1300  0.1500  0.2200  0.2200  0.2200  0.2200  0.2200  0.2200  0.2200  0.2800  0.3000  0.3200  0.3700  0.3700  0.3700  0.3700  0.3700  0.3700  0.3700  0.3300  0.3750  0.4200  0.4200  0.4200  0.4200  0.4200  0.4200  0.4200  0.4200  1.1000  1.1500  1.2000  1.2500  1.2500  1.2500  1.2500  1.2500  1.2500  1.2500  0.3058  0.3367  0.3549  0.3946  0.3946  0.3947  0.3947  0.3808  0.3804  0.3793
 1975 071   132   0.1100  0.1300  0.1500  0.2200  0.2200  0.2200  0.2200  0.2200  0.2200  0.2200  0.2800  0.3000  0.3200  0.3700  0.3700  0.3700  0.3700  0.3700  0.3700  0.3700  0.3300  0.3750  0.4200  0.4200  0.4200  0.4200  0.4200  0.4200  0.4200  0.4200  1.1000  1.1500  1.2000  1.2500  1.2500  1.2500  1.2500  1.2500  1.2500  1.2500  0.3072  0.3374  0.3570  0.3949  0.3949  0.3950  0.3950  0.3813  0.3809  0.3801
 1975 072   133   0.1100  0.1300  0.1500  0.2200  0.2200  0.2200  0.2200  0.2200  0.2200  0.2200  0.2800  0.3000  0.3200  0.3700  0.3700  0.3700  0.3700  0.3700  0.3700  0.3700  0.3300  0.3750  0.4200  0.4200  0.4200  0.4200  0.4200  0.4200  0.4200  0.4200  1.1000  1.1500  1.2000  1.2500  1.2500  1.2500  1.2500  1.2500  1.2500  1.2500  0.3072  0.3373  0.3699  0.3949  0.3949  0.3949  0.3949  0.3850  0.3829  0.3815
 1975 073   134   0.1100  0.1300  0.1500  0.2200  0.2200  0.2200  0.2200  0.2200  0.2200  0.2200  0.2800  0.3000  0.3200  0.3700  0.3700  0.3700  0.3700  0.3700  0.3700  0.3700  0.3300  0.3750  0.4200  0.4200  0.4200  0.4200  0.4200  0.4200  0.4200  0.4200  1.1000  1.1500  1.2000  1.2500  1.2500  1.2500  1.2500  1.2500  1.2500  1.2500  0.3041  0.3231  0.3563  0.3945  0.3946  0.3947  0.3947  0.3835  0.3832  0.3823
 1975 074   135   0.1100  0.1300  0.1500  0.2200  0.2200  0.2200  0.2200  0.2200  0.2200  0.2200  0.2800  0.3000  0.3200  0.3700  0.3700  0.3700  0.3700  0.3700  0.3700  0.3700  0.3300  0.3750  0.4200  0.4200  0.4200  0.4200  0.4200  0.4200  0.4200  0.4200  1.1000  1.1500  1.2000  1.2500  1.2500  1.2500  1.2500  1.2500  1.2500  1.2500  0.3062  0.3166  0.3463  0.3947  0.3947  0.3948  0.3948  0.3808  0.3820  0.3821
 1975 075   136   0.1100  0.1300  0.1500  0.2200  0.2200  0.2200  0.2200  0.2200  0.2200  0.2200  0.2800  0.3000  0.3200  0.3700  0.3700  0.3700  0.3700  0.3700  0.3700  0.3700  0.3300  0.3750  0.4200  0.4200  0.4200  0.4200  0.4200  0.4200  0.4200  0.4200  1.1000  1.1500  1.2000  1.2500  1.2500  1.2500  1.2500  1.2500  1.2500  1.2500  0.2922  0.3096  0.3375  0.3907  0.3923  0.3932  0.3937  0.3791  0.3804  0.3811
 1975 076   137   0.1100  0.1300  0.1500  0.2200  0.2200  0.2200  0.2200  0.2200  0.2200  0.2200  0.2800  0.3000  0.3200  0.3700  0.3700  0.3700  0.3700  0.3700  0.3700  0.3700  0.3300  0.3750  0.4200  0.4200  0.4200  0.4200  0.4200  0.4200  0.4200  0.4200  1.1000  1.1500  1.2000  1.2500  1.2500  1.2500  1.2500  1.2500  1.2500  1.2500  0.2808  0.3023  0.3270  0.3789  0.3799  0.3807  0.3810  0.3740  0.3748  0.3753
 1975 077   138   0.1100  0.1300  0.1500  0.2200  0.2200  0.2200  0.2200  0.2200  0.2200  0.2200  0.2800  0.3000  0.3200  0.3700  0.3700  0.3700  0.3700  0.3700  0.3700  0.3700  0.3300  0.3750  0.4200  0.4200  0.4200  0.4200  0.4200  0.4200  0.4200  0.4200  1.1000  1.1500  1.2000  1.2500  1.2500  1.2500  1.2500  1.2500  1.2500  1.2500  0.2832  0.3002  0.3230  0.3754  0.3771  0.3785  0.3793  0.3731  0.3739  0.3744
 1975 078   139   0.1100  0.1300  0.1500  0.2200  0.2200  0.2200  0.2200  0.2200  0.2200  0.2200  0.2800  0.3000  0.3200  0.3700  0.3700  0.3700  0.3700  0.3700  0.3700  0.3700  0.3300  0.3750  0.4200  0.4200  0.4200  0.4200  0.4200  0.4200  0.4200  0.4200  1.1000  1.1500  1.2000  1.2500  1.2500  1.2500  1.2500  1.2500  1.2500  1.2500  0.2831  0.3014  0.3212  0.3732  0.3751  0.3767  0.3780  0.3728  0.3733  0.3738
 1975 079   140   0.1100  0.1300  0.1500  0.2200  0.2200  0.2200  0.2200  0.2200  0.2200  0.2200  0.2800  0.3000  0.3200  0.3700  0.3700  0.3700  0.3700  0.3700  0.3700  0.3700  0.3300  0.3750  0.4200  0.4200  0.4200  0.4200  0.4200  0.4200  0.4200  0.4200  1.1000  1.1500  1.2000  1.2500  1.2500  1.2500  1.2500  1.2500  1.2500  1.2500  0.2836  0.3028  0.3211  0.3715  0.3733  0.3750  0.3764  0.3725  0.3729  0.3734
 1975 080   141   0.1100  0.1300  0.1500  0.2200  0.2200  0.2200  0.2200  0.2200  0.2200  0.2200  0.2800  0.3000  0.3200  0.3700  0.3700  0.3700  0.3700  0.3700  0.3700  0.3700  0.3300  0.3750  0.4200  0.4200  0.4200  0.4200  0.4200  0.4200  0.4200  0.4200  1.1000  1.1500  1.2000  1.2500  1.2500  1.2500  1.2500  1.2500  1.2500  1.2500  0.3056  0.3366  0.3446  0.3829  0.3779  0.3763  0.3762  0.3721  0.3725  0.3729
 1975 081   142   0.1100  0.1300  0.1500  0.2200  0.2200  0.2200  0.2200  0.2200  0.2200  0.2200  0.2800  0.3000  0.3200  0.3700  0.3700  0.3700  0.3700  0.3700  0.3700  0.3700  0.3300  0.3750  0.4200  0.4200  0.4200  0.4200  0.4200  0.4200  0.4200  0.4200  1.1000  1.1500  1.2000  1.2500  1.2500  1.2500  1.2500  1.2500  1.2500  1.2500  0.2997  0.3214  0.3427  0.3875  0.3824  0.3792  0.3775  0.3721  0.3722  0.3725
 1975 082   143   0.1100  0.1300  0.1500  0.2200  0.2200  0.2200  0.2200  0.2200  0.2200  0.2200  0.2800  0.3000  0.3200  0.3700  0.3700  0.3700  0.3700  0.3700  0.3700  0.3700  0.3300  0.3750  0.4200  0.4200  0.4200  0.4200  0.4200  0.4200  0.4200  0.4200  1.1000  1.1500  1.2000  1.2500  1.2500  1.2500  1.2500  1.2500  1.2500  1.2500  0.2875  0.3110  0.3365  0.3866  0.3841  0.3814  0.3791  0.3723  0.3722  0.3722
 1975 083   144   0.1100  0.1300  0.1500  0.2200  0.2200  0.2200  0.2200  0.2200  0.2200  0.2200  0.2800  0.3000  0.3200  0.3700  0.3700  0.3700  0.3700  0.3700  0.3700  0.3700  0.3300  0.3750  0.4200  0.4200  0.4200  0.4200  0.4200  0.4200  0.4200  0.4200  1.1000  1.1500  1.2000  1.2500  1.2500  1.2500  1.2500  1.2500  1.2500  1.2500  0.2788  0.3031  0.3265  0.3769  0.3759  0.3748  0.3737  0.3718  0.3718  0.3719
 1975 084   145   0.1100  0.1300  0.1500  0.2200  0.2200  0.2200  0.2200  0.2200  0.2200  0.2200  0.2800  0.3000  0.3200  0.3700  0.3700  0.3700  0.3700  0.3700  0.3700  0.3700  0.3300  0.3750  0.4200  0.4200  0.4200  0.4200  0.4200  0.4200  0.4200  0.4200  1.1000  1.1500  1.2000  1.2500  1.2500  1.2500  1.2500  1.2500  1.2500  1.2500  0.2733  0.2989  0.3214  0.3720  0.3717  0.3714  0.3710  0.3712  0.3714  0.3716
 1975 085   146   0.1100  0.1300  0.1500  0.2200  0.2200  0.2200  0.2200  0.2200  0.2200  0.2200  0.2800  0.3000  0.3200  0.3700  0.3700  0.3700  0.3700  0.3700  0.3700  0.3700  0.3300  0.3750  0.4200  0.4200  0.4200  0.4200  0.4200  0.4200  0.4200  0.4200  1.1000  1.1500  1.2000  1.2500  1.2500  1.2500  1.2500  1.2500  1.2500  1.2500  0.3056  0.3165  0.3288  0.3752  0.3733  0.3722  0.3715  0.3716  0.3713  0.3715
 1975 086   147   0.1100  0.1300  0.1500  0.2200  0.2200  0.2200  0.2200  0.2200  0.2200  0.2200  0.2800  0.3000  0.3200  0.3700  0.3700  0.3700  0.3700  0.3700  0.3700  0.3700  0.3300  0.3750  0.4200  0.4200  0.4200  0.4200  0.4200  0.4200  0.4200  0.4200  1.1000  1.1500  1.2000  1.2500  1.2500  1.2500  1.2500  1.2500  1.2500  1.2500  0.3053  0.3364  0.3472  0.3860  0.3794  0.3757  0.3734  0.3726  0.3711  0.3714
 1975 087   148   0.1100  0.1300  0.1500  0.2200  0.2200  0.2200  0.2200  0.2200  0.2200  0.2200  0.2800  0.3000  0.3200  0.3700  0.3700  0.3700  0.3700  0.3700  0.3700  0.3700  0.3300  0.3750  0.4200  0.4200  0.4200  0.4200  0.4200  0.4200  0.4200  0.4200  1.1000  1.1500  1.2000  1.2500  1.2500  1.2500  1.2500  1.2500  1.2500  1.2500  0.2889  0.3177  0.3416  0.3880  0.3829  0.3788  0.3755  0.3717  0.3712  0.3711
 1975 088   149   0.1100  0.1300  0.1500  0.2200  0.2200  0.2200  0.2200  0.2200  0.2200  0.2200  0.2800  0.3000  0.3200  0.3700  0.3700  0.3700  0.3700  0.3700  0.3700  0.3700  0.3300  0.3750  0.4200  0.4200  0.4200  0.4200  0.4200  0.4200  0.4200  0.4200  1.1000  1.1500  1.2000  1.2500  1.2500  1.2500  1.2500  1.2500  1.2500  1.2500  0.2962  0.3107  0.3356  0.3863  0.3841  0.3811  0.3779  0.3718  0.3714  0.3726
 1975 089   150   0.1100  0.1300  0.1500  0.2200  0.2200  0.2200  0.2200  0.2200  0.2200  0.2200  0.2800  0.3000  0.3200  0.3700  0.3700  0.3700  0.3700  0.3700  0.3700  0.3700  0.3300  0.3750  0.4200  0.4200  0.4200  0.4200  0.4200  0.4200  0.4200  0.4200  1.1000  1.1500  1.2000  1.2500  1.2500  1.2500  1.2500  1.2500  1.2500  1.2500  0.3030  0.3124  0.3336  0.3845  0.3839  0.3822  0.3798  0.3722  0.3717  0.3720
 1975 090   151   0.1100  0.1300  0.1500  0.2200  0.2200  0.2200  0.2200  0.2200  0.2200  0.2200  0.2800  0.3000  0.3200  0.3700  0.3700  0.3700  0.3700  0.3700  0.3700  0.3700  0.3300  0.3750  0.4200  0.4200  0.4200  0.4200  0.4200  0.4200  0.4200  0.4200  1.1000  1.1500  1.2000  1.2500  1.2500  1.2500  1.2500  1.2500  1.2500  1.2500  0.2935  0.3074  0.3299  0.3816  0.3822  0.3818  0.3804  0.3724  0.3720  0.3719
 1975 091   152   0.1100  0.1300  0.1500  0.2200  0.2200  0.2200  0.2200  0.2200  0.2200  0.2200  0.2800  0.3000  0.3200  0.3700  0.3700  0.3700  0.3700  0.3700  0.3700  0.3700  0.3300  0.3750  0.4200  0.4200  0.4200  0.4200  0.4200  0.4200  0.4200  0.4200  1.1000  1.1500  1.2000  1.2500  1.2500  1.2500  1.2500  1.2500  1.2500  1.2500  0.3022  0.3157  0.3323  0.3814  0.3813  0.3812  0.3804  0.3726  0.3722  0.3719
 1975 092   153   0.1100  0.1300  0.1500  0.2200  0.2200  0.2200  0.2200  0.2200  0.2200  0.2200  0.2800  0.3000  0.3200  0.3700  0.3700  0.3700  0.3700  0.3700  0.3700  0.3700  0.3300  0.3750  0.4200  0.4200  0.4200  0.4200  0.4200  0.4200  0.4200  0.4200  1.1000  1.1500  1.2000  1.2500  1.2500  1.2500  1.2500  1.2500  1.2500  1.2500  0.3025  0.3117  0.3315  0.3810  0.3807  0.3806  0.3802  0.3726  0.3723  0.3720
 1975 093   154   0.1100  0.1300  0.1500  0.2200  0.2200  0.2200  0.2200  0.2200  0.2200  0.2200  0.2800  0.3000  0.3200  0.3700  0.3700  0.3700  0.3700  0.3700  0.3700  0.3700  0.3300  0.3750  0.4200  0.4200  0.4200  0.4200  0.4200  0.4200  0.4200  0.4200  1.1000  1.1500  1.2000  1.2500  1.2500  1.2500  1.2500  1.2500  1.2500  1.2500  0.3033  0.3296  0.3401  0.3852  0.3825  0.3813  0.3804  0.3728  0.3725  0.3721
 1975 094   155   0.1100  0.1300  0.1500  0.2200  0.2200  0.2200  0.2200  0.2200  0.2200  0.2200  0.2800  0.3000  0.3200  0.3700  0.3700  0.3700  0.3700  0.3700  0.3700  0.3700  0.3300  0.3750  0.4200  0.4200  0.4200  0.4200  0.4200  0.4200  0.4200  0.4200  1.1000  1.1500  1.2000  1.2500  1.2500  1.2500  1.2500  1.2500  1.2500  1.2500  0.2933  0.3161  0.3376  0.3859  0.3837  0.3822  0.3809  0.3728  0.3726  0.3722
 1975 095   156   0.1100  0.1300  0.1500  0.2200  0.2200  0.2200  0.2200  0.2200  0.2200  0.2200  0.2800  0.3000  0.3200  0.3700  0.3700  0.3700  0.3700  0.3700  0.3700  0.3700  0.3300  0.3750  0.4200  0.4200  0.4200  0.4200  0.4200  0.4200  0.4200  0.4200  1.1000  1.1500  1.2000  1.2500  1.2500  1.2500  1.2500  1.2500  1.2500  1.2500  0.3037  0.3281  0.3425  0.3888  0.3859  0.3838  0.3821  0.3732  0.3728  0.3724
 1975 096   157   0.1100  0.1300  0.1500  0.2200  0.2200  0.2200  0.2200  0.2200  0.2200  0.2200  0.2800  0.3000  0.3200  0.3700  0.3700  0.3700  0.3700  0.3700  0.3700  0.3700  0.3300  0.3750  0.4200  0.4200  0.4200  0.4200  0.4200  0.4200  0.4200  0.4200  1.1000  1.1500  1.2000  1.2500  1.2500  1.2500  1.2500  1.2500  1.2500  1.2500  0.2884  0.3141  0.3377  0.3877  0.3862  0.3846  0.3829  0.3733  0.3730  0.3726
 1975 097   158   0.1100  0.1300  0.1500  0.2200  0.2200  0.2200  0.2200  0.2200  0.2200  0.2200  0.2800  0.3000  0.3200  0.3700  0.3700  0.3700  0.3700  0.3700  0.3700  0.3700  0.3300  0.3750  0.4200  0.4200  0.4200  0.4200  0.4200  0.4200  0.4200  0.4200  1.1000  1.1500  1.2000  1.2500  1.2500  1.2500  1.2500  1.2500  1.2500  1.2500  0.3029  0.3126  0.3347  0.3857  0.3855  0.3847  0.3835  0.3736  0.3732  0.3728
 1975 098   159   0.1100  0.1300  0.1500  0.2200  0.2200  0.2200  0.2200  0.2200  0.2200  0.2200  0.2800  0.3000  0.3200  0.3700  0.3700  0.3700  0.3700  0.3700  0.3700  0.3700  0.3300  0.3750  0.4200  0.4200  0.4200  0.4200  0.4200  0.4200  0.4200  0.4200  1.1000  1.1500  1.2000  1.2500  1.2500  1.2500  1.2500  1.2500  1.2500  1.2500  0.2996  0.3263  0.3397  0.3869  0.3854  0.3846  0.3834  0.3735  0.3732  0.3728
 1975 099   160   0.1100  0.1300  0.1500  0.2200  0.2200  0.2200  0.2200  0.2200  0.2200  0.2200  0.2800  0.3000  0.3200  0.3700  0.3700  0.3700  0.3700  0.3700  0.3700  0.3700  0.3300  0.3750  0.4200  0.4200  0.4200  0.4200  0.4200  0.4200  0.4200  0.4200  1.1000  1.1500  1.2000  1.2500  1.2500  1.2500  1.2500  1.2500  1.2500  1.2500  0.2872  0.3127  0.3355  0.3855  0.3848  0.3842  0.3833  0.3734  0.3732  0.3728
 1975 100   161   0.1100  0.1300  0.1500  0.2200  0.2200  0.2200  0.2200  0.2200  0.2200  0.2200  0.2800  0.3000  0.3200  0.3700  0.3700  0.3700  0.3700  0.3700  0.3700  0.3700  0.3300  0.3750  0.4200  0.4200  0.4200  0.4200  0.4200  0.4200  0.4200  0.4200  1.1000  1.1500  1.2000  1.2500  1.2500  1.2500  1.2500  1.2500  1.2500  1.2500  0.2999  0.3087  0.3315  0.3829  0.3832  0.3833  0.3828  0.3734  0.3732  0.3729
 1975 101   162   0.1100  0.1300  0.1500  0.2200  0.2200  0.2200  0.2200  0.2200  0.2200  0.2200  0.2800  0.3000  0.3200  0.3700  0.3700  0.3700  0.3700  0.3700  0.3700  0.3700  0.3300  0.3750  0.4200  0.4200  0.4200  0.4200  0.4200  0.4200  0.4200  0.4200  1.1000  1.1500  1.2000  1.2500  1.2500  1.2500  1.2500  1.2500  1.2500  1.2500  0.2888  0.3050  0.3278  0.3799  0.3811  0.3819  0.3820  0.3734  0.3732  0.3729
 1975 102   163   0.1100  0.1300  0.1500  0.2200  0.2200  0.2200  0.2200  0.2200  0.2200  0.2200  0.2800  0.3000  0.3200  0.3700  0.3700  0.3700  0.3700  0.3700  0.3700  0.3700  0.3300  0.3750  0.4200  0.4200  0.4200  0.4200  0.4200  0.4200  0.4200  0.4200  1.1000  1.1500  1.2000  1.2500  1.2500  1.2500  1.2500  1.2500  1.2500  1.2500  0.2769  0.2988  0.3213  0.3729  0.3737  0.3745  0.3747  0.3709  0.3711  0.3725
 1975 103   164   0.1100  0.1300  0.1500  0.2200  0.2200  0.2200  0.2200  0.2200  0.2200  0.2200  0.2800  0.3000  0.3200  0.3700  0.3700  0.3700  0.3700  0.3700  0.3700  0.3700  0.3300  0.3750  0.4200  0.4200  0.4200  0.4200  0.4200  0.4200  0.4200  0.4200  1.1000  1.1500  1.2000  1.2500  1.2500  1.2500  1.2500  1.2500  1.2500  1.2500  0.2862  0.2989  0.3194  0.3704  0.3714  0.3725  0.3731  0.3716  0.3707  0.3721
 1975 104   165   0.1100  0.1300  0.1500  0.2200  0.2200  0.2200  0.2200  0.2200  0.2200  0.2200  0.2800  0.3000  0.3200  0.3700  0.3700  0.3700  0.3700  0.3700  0.3700  0.3700  0.3300  0.3750  0.4200  0.4200  0.4200  0.4200  0.4200  0.4200  0.4200  0.4200  1.1000  1.1500  1.2000  1.2500  1.2500  1.2500  1.2500  1.2500  1.2500  1.2500  0.3041  0.3170  0.3278  0.3738  0.3722  0.3722  0.3724  0.3723  0.3704  0.3719
 1975 105   166   0.1100  0.1300  0.1500  0.2200  0.2200  0.2200  0.2200  0.2200  0.2200  0.2200  0.2800  0.3000  0.3200  0.3700  0.3700  0.3700  0.3700  0.3700  0.3700  0.3700  0.3300  0.3750  0.4200  0.4200  0.4200  0.4200  0.4200  0.4200  0.4200  0.4200  1.1000  1.1500  1.2000  1.2500  1.2500  1.2500  1.2500  1.2500  1.2500  1.2500  0.3036  0.3172  0.3321  0.3775  0.3745  0.3731  0.3724  0.3713  0.3718  0.3717
 1975 106   167   0.1100  0.1300  0.1500  0.2200  0.2200  0.2200  0.2200  0.2200  0.2200  0.2200  0.2800  0.3000  0.3200  0.3700  0.3700  0.3700  0.3700  0.3700  0.3700  0.3700  0.3300  0.3750  0.4200  0.4200  0.4200  0.4200  0.4200  0.4200  0.4200  0.4200  1.1000  1.1500  1.2000  1.2500  1.2500  1.2500  1.2500  1.2500  1.2500  1.2500  0.2991  0.3199  0.3351  0.3805  0.3766  0.3743  0.3727  0.3718  0.3713  0.3713
 1975 107   168   0.1100  0.1300  0.1500  0.2200  0.2200  0.2200  0.2200  0.2200  0.2200  0.2200  0.2800  0.3000  0.3200  0.3700  0.3700  0.3700  0.3700  0.3700  0.3700  0.3700  0.3300  0.3750  0.4200  0.4200  0.4200  0.4200  0.4200  0.4200  0.4200  0.4200  1.1000  1.1500  1.2000  1.2500  1.2500  1.2500  1.2500  1.2500  1.2500  1.2500  0.2954  0.3123  0.3334  0.3816  0.3788  0.3763  0.3743  0.3714  0.3728  0.3711
 1975 108   169   0.1100  0.1300  0.1500  0.2200  0.2200  0.2200  0.2200  0.2200  0.2200  0.2200  0.2800  0.3000  0.3200  0.3700  0.3700  0.3700  0.3700  0.3700  0.3700  0.3700  0.3300  0.3750  0.4200  0.4200  0.4200  0.4200  0.4200  0.4200  0.4200  0.4200  1.1000  1.1500  1.2000  1.2500  1.2500  1.2500  1.2500  1.2500  1.2500  1.2500  0.2987  0.3329  0.3627  0.3924  0.3884  0.3818  0.3773  0.3713  0.3720  0.3714
 1975 109   170   0.1100  0.1300  0.1500  0.2200  0.2200  0.2200  0.2200  0.2200  0.2200  0.2200  0.2800  0.3000  0.3200  0.3700  0.3700  0.3700  0.3700  0.3700  0.3700  0.3700  0.3300  0.3750  0.4200  0.4200  0.4200  0.4200  0.4200  0.4200  0.4200  0.4200  1.1000  1.1500  1.2000  1.2500  1.2500  1.2500  1.2500  1.2500  1.2500  1.2500  0.2828  0.3130  0.3388  0.3792  0.3775  0.3745  0.3724  0.3706  0.3715  0.3710
 1975 110   171   0.1100  0.1300  0.1500  0.2200  0.2200  0.2200  0.2200  0.2200  0.2200  0.2200  0.2800  0.3000  0.3200  0.3700  0.3700  0.3700  0.3700  0.3700  0.3700  0.3700  0.3300  0.3750  0.4200  0.4200  0.4200  0.4200  0.4200  0.4200  0.4200  0.4200  1.1000  1.1500  1.2000  1.2500  1.2500  1.2500  1.2500  1.2500  1.2500  1.2500  0.2742  0.3019  0.3260  0.3719  0.3713  0.3704  0.3707  0.3696  0.3710  0.3705
 1975 111   172   0.1100  0.1300  0.1500  0.2200  0.2200  0.2200  0.2200  0.2200  0.2200  0.2200  0.2800  0.3000  0.3200  0.3700  0.3700  0.3700  0.3700  0.3700  0.3700  0.3700  0.3300  0.3750  0.4200  0.4200  0.4200  0.4200  0.4200  0.4200  0.4200  0.4200  1.1000  1.1500  1.2000  1.2500  1.2500  1.2500  1.2500  1.2500  1.2500  1.2500  0.2670  0.2980  0.3201  0.3696  0.3693  0.3689  0.3693  0.3692  0.3705  0.3701
 1975 112   173   0.1100  0.1300  0.1500  0.2200  0.2200  0.2200  0.2200  0.2200  0.2200  0.2200  0.2800  0.3000  0.3200  0.3700  0.3700  0.3700  0.3700  0.3700  0.3700  0.3700  0.3300  0.3750  0.4200  0.4200  0.4200  0.4200  0.4200  0.4200  0.4200  0.4200  1.1000  1.1500  1.2000  1.2500  1.2500  1.2500  1.2500  1.2500  1.2500  1.2500  0.2564  0.2922  0.3157  0.3662  0.3662  0.3665  0.3671  0.3680  0.3698  0.3696
 1975 113   174   0.1100  0.1300  0.1500  0.2200  0.2200  0.2200  0.2200  0.2200  0.2200  0.2200  0.2800  0.3000  0.3200  0.3700  0.3700  0.3700  0.3700  0.3700  0.3700  0.3700  0.3300  0.3750  0.4200  0.4200  0.4200  0.4200  0.4200  0.4200  0.4200  0.4200  1.1000  1.1500  1.2000  1.2500  1.2500  1.2500  1.2500  1.2500  1.2500  1.2500  0.2338  0.2888  0.3137  0.3647  0.3649  0.3656  0.3662  0.3677  0.3698  0.3695
 1975 114   175   0.1100  0.1300  0.1500  0.2200  0.2200  0.2200  0.2200  0.2200  0.2200  0.2200  0.2800  0.3000  0.3200  0.3700  0.3700  0.3700  0.3700  0.3700  0.3700  0.3700  0.3300  0.3750  0.4200  0.4200  0.4200  0.4200  0.4200  0.4200  0.4200  0.4200  1.1000  1.1500  1.2000  1.2500  1.2500  1.2500  1.2500  1.2500  1.2500  1.2500  0.2119  0.2843  0.3106  0.3625  0.3628  0.3642  0.3649  0.3672  0.3697  0.3695
 1975 115   176   0.1100  0.1300  0.1500  0.2200  0.2200  0.2200  0.2200  0.2200  0.2200  0.2200  0.2800  0.3000  0.3200  0.3700  0.3700  0.3700  0.3700  0.3700  0.3700  0.3700  0.3300  0.3750  0.4200  0.4200  0.4200  0.4200  0.4200  0.4200  0.4200  0.4200  1.1000  1.1500  1.2000  1.2500  1.2500  1.2500  1.2500  1.2500  1.2500  1.2500  0.2143  0.2814  0.3089  0.3613  0.3618  0.3635  0.3642  0.3670  0.3697  0.3695
 1975 116   177   0.1100  0.1300  0.1500  0.2200  0.2200  0.2200  0.2200  0.2200  0.2200  0.2200  0.2800  0.3000  0.3200  0.3700  0.3700  0.3700  0.3700  0.3700  0.3700  0.3700  0.3300  0.3750  0.4200  0.4200  0.4200  0.4200  0.4200  0.4200  0.4200  0.4200  1.1000  1.1500  1.2000  1.2500  1.2500  1.2500  1.2500  1.2500  1.2500  1.2500  0.1954  0.2780  0.3068  0.3598  0.3604  0.3625  0.3632  0.3667  0.3697  0.3695
 1975 117   178   0.1100  0.1300  0.1500  0.2200  0.2200  0.2200  0.2200  0.2200  0.2200  0.2200  0.2800  0.3000  0.3200  0.3700  0.3700  0.3700  0.3700  0.3700  0.3700  0.3700  0.3300  0.3750  0.4200  0.4200  0.4200  0.4200  0.4200  0.4200  0.4200  0.4200  1.1000  1.1500  1.2000  1.2500  1.2500  1.2500  1.2500  1.2500  1.2500  1.2500  0.1911  0.2772  0.3063  0.3595  0.3601  0.3623  0.3630  0.3666  0.3696  0.3695
 1975 118   179   0.1100  0.1300  0.1500  0.2200  0.2200  0.2200  0.2200  0.2200  0.2200  0.2200  0.2800  0.3000  0.3200  0.3700  0.3700  0.3700  0.3700  0.3700  0.3700  0.3700  0.3300  0.3750  0.4200  0.4200  0.4200  0.4200  0.4200  0.4200  0.4200  0.4200  1.1000  1.1500  1.2000  1.2500  1.2500  1.2500  1.2500  1.2500  1.2500  1.2500  0.1738  0.2733  0.3038  0.3576  0.3584  0.3611  0.3619  0.3662  0.3696  0.3695
 1975 119   180   0.1100  0.1300  0.1500  0.2200  0.2200  0.2200  0.2200  0.2200  0.2200  0.2200  0.2800  0.3000  0.3200  0.3700  0.3700  0.3700  0.3700  0.3700  0.3700  0.3700  0.3300  0.3750  0.4200  0.4200  0.4200  0.4200  0.4200  0.4200  0.4200  0.4200  1.1000  1.1500  1.2000  1.2500  1.2500  1.2500  1.2500  1.2500  1.2500  1.2500  0.1680  0.2698  0.3015  0.3560  0.3569  0.3601  0.3609  0.3659  0.3696  0.3695
 1975 120   181   0.1100  0.1300  0.1500  0.2200  0.2200  0.2200  0.2200  0.2200  0.2200  0.2200  0.2800  0.3000  0.3200  0.3700  0.3700  0.3700  0.3700  0.3700  0.3700  0.3700  0.3300  0.3750  0.4200  0.4200  0.4200  0.4200  0.4200  0.4200  0.4200  0.4200  1.1000  1.1500  1.2000  1.2500  1.2500  1.2500  1.2500  1.2500  1.2500  1.2500  0.1793  0.2658  0.2988  0.3540  0.3550  0.3588  0.3597  0.3655  0.3695  0.3695
 1975 121   182   0.1100  0.1300  0.1500  0.2200  0.2200  0.2200  0.2200  0.2200  0.2200  0.2200  0.2800  0.3000  0.3200  0.3700  0.3700  0.3700  0.3700  0.3700  0.3700  0.3700  0.3300  0.3750  0.4200  0.4200  0.4200  0.4200  0.4200  0.4200  0.4200  0.4200  1.1000  1.1500  1.2000  1.2500  1.2500  1.2500  1.2500  1.2500  1.2500  1.2500  0.1656  0.2631  0.2971  0.3528  0.3540  0.3581  0.3590  0.3652  0.3695  0.3695
 1975 122   183   0.1100  0.1300  0.1500  0.2200  0.2200  0.2200  0.2200  0.2200  0.2200  0.2200  0.2800  0.3000  0.3200  0.3700  0.3700  0.3700  0.3700  0.3700  0.3700  0.3700  0.3300  0.3750  0.4200  0.4200  0.4200  0.4200  0.4200  0.4200  0.4200  0.4200  1.1000  1.1500  1.2000  1.2500  1.2500  1.2500  1.2500  1.2500  1.2500  1.2500  0.2444  0.2596  0.2948  0.3512  0.3524  0.3570  0.3580  0.3648  0.3694  0.3695
 1975 123   184   0.1100  0.1300  0.1500  0.2200  0.2200  0.2200  0.2200  0.2200  0.2200  0.2200  0.2800  0.3000  0.3200  0.3700  0.3700  0.3700  0.3700  0.3700  0.3700  0.3700  0.3300  0.3750  0.4200  0.4200  0.4200  0.4200  0.4200  0.4200  0.4200  0.4200  1.1000  1.1500  1.2000  1.2500  1.2500  1.2500  1.2500  1.2500  1.2500  1.2500  0.2219  0.2555  0.2920  0.3491  0.3505  0.3557  0.3567  0.3644  0.3694  0.3694
 1975 124   185   0.1100  0.1300  0.1500  0.2200  0.2200  0.2200  0.2200  0.2200  0.2200  0.2200  0.2800  0.3000  0.3200  0.3700  0.3700  0.3700  0.3700  0.3700  0.3700  0.3700  0.3300  0.3750  0.4200  0.4200  0.4200  0.4200  0.4200  0.4200  0.4200  0.4200  1.1000  1.1500  1.2000  1.2500  1.2500  1.2500  1.2500  1.2500  1.2500  1.2500  0.2011  0.2511  0.2889  0.3468  0.3483  0.3542  0.3552  0.3639  0.3693  0.3694
 1975 125   186   0.1100  0.1300  0.1500  0.2200  0.2200  0.2200  0.2200  0.2200  0.2200  0.2200  0.2800  0.3000  0.3200  0.3700  0.3700  0.3700  0.3700  0.3700  0.3700  0.3700  0.3300  0.3750  0.4200  0.4200  0.4200  0.4200  0.4200  0.4200  0.4200  0.4200  1.1000  1.1500  1.2000  1.2500  1.2500  1.2500  1.2500  1.2500  1.2500  1.2500  0.1827  0.2471  0.2861  0.3448  0.3465  0.3528  0.3539  0.3635  0.3692  0.3694
 1975 126   187   0.1100  0.1300  0.1500  0.2200  0.2200  0.2200  0.2200  0.2200  0.2200  0.2200  0.2800  0.3000  0.3200  0.3700  0.3700  0.3700  0.3700  0.3700  0.3700  0.3700  0.3300  0.3750  0.4200  0.4200  0.4200  0.4200  0.4200  0.4200  0.4200  0.4200  1.1000  1.1500  1.2000  1.2500  1.2500  1.2500  1.2500  1.2500  1.2500  1.2500  0.1657  0.2429  0.2831  0.3426  0.3444  0.3514  0.3526  0.3630  0.3692  0.3694
 1975 127   188   0.1100  0.1300  0.1500  0.2200  0.2200  0.2200  0.2200  0.2200  0.2200  0.2200  0.2800  0.3000  0.3200  0.3700  0.3700  0.3700  0.3700  0.3700  0.3700  0.3700  0.3300  0.3750  0.4200  0.4200  0.4200  0.4200  0.4200  0.4200  0.4200  0.4200  1.1000  1.1500  1.2000  1.2500  1.2500  1.2500  1.2500  1.2500  1.2500  1.2500  0.2932  0.2964  0.2815  0.3414  0.3433  0.3507  0.3519  0.3627  0.3691  0.3694
[...]
 1975 181    50   0.0960  0.0960  0.1120  0.0940  0.1030  0.1030  0.1020  0.1020  0.1020  0.2300  0.2300  0.2500  0.2200  0.2200  0.2200  0.2500  0.2500  0.2500  0.4400  0.4400  0.4400  0.4400  0.4400  0.4400  0.4400  0.4400  0.4400  1.2000  1.2000  1.2000  1.2000  1.2000  1.2000  1.2000  1.2000  1.2000  0.1710  0.2104  0.2318  0.2086  0.2137  0.2170  0.2293  0.2325  0.2353
 1975 182    51   0.0960  0.0960  0.1120  0.0940  0.1030  0.1030  0.1020  0.1020  0.1020  0.2300  0.2300  0.2500  0.2200  0.2200  0.2200  0.2500  0.2500  0.2500  0.4400  0.4400  0.4400  0.4400  0.4400  0.4400  0.4400  0.4400  0.4400  1.2000  1.2000  1.2000  1.2000  1.2000  1.2000  1.2000  1.2000  1.2000  0.1521  0.2051  0.2275  0.2060  0.2122  0.2168  0.2292  0.2325  0.2353
 1975 183    52   0.0960  0.0960  0.1120  0.0940  0.1030  0.1030  0.1020  0.1020  0.1020  0.2300  0.2300  0.2500  0.2200  0.2200  0.2200  0.2500  0.2500  0.2500  0.4400  0.4400  0.4400  0.4400  0.4400  0.4400  0.4400  0.4400  0.4400  1.2000  1.2000  1.2000  1.2000  1.2000  1.2000  1.2000  1.2000  1.2000  0.1342  0.1991  0.2227  0.2030  0.2104  0.2164  0.2292  0.2325  0.2353
 1975 184    53   0.0960  0.0960  0.1120  0.0940  0.1030  0.1030  0.1020  0.1020  0.1020  0.2300  0.2300  0.2500  0.2200  0.2200  0.2200  0.2500  0.2500  0.2500  0.4400  0.4400  0.4400  0.4400  0.4400  0.4400  0.4400  0.4400  0.4400  1.2000  1.2000  1.2000  1.2000  1.2000  1.2000  1.2000  1.2000  1.2000  0.1231  0.1929  0.2175  0.1998  0.2084  0.2159  0.2292  0.2325  0.2353
 1975 185    54   0.0960  0.0960  0.1120  0.0940  0.1030  0.1030  0.1020  0.1020  0.1020  0.2300  0.2300  0.2500  0.2200  0.2200  0.2200  0.2500  0.2500  0.2500  0.4400  0.4400  0.4400  0.4400  0.4400  0.4400  0.4400  0.4400  0.4400  1.2000  1.2000  1.2000  1.2000  1.2000  1.2000  1.2000  1.2000  1.2000  0.1388  0.1851  0.2108  0.1955  0.2056  0.2150  0.2292  0.2324  0.2353
 1975 186    55   0.0960  0.0960  0.1120  0.0940  0.1030  0.1030  0.1020  0.1020  0.1020  0.2300  0.2300  0.2500  0.2200  0.2200  0.2200  0.2500  0.2500  0.2500  0.4400  0.4400  0.4400  0.4400  0.4400  0.4400  0.4400  0.4400  0.4400  1.2000  1.2000  1.2000  1.2000  1.2000  1.2000  1.2000  1.2000  1.2000  0.1256  0.1772  0.2040  0.1911  0.2026  0.2139  0.2292  0.2324  0.2353
 1975 187    56   0.0960  0.0960  0.1120  0.0940  0.1030  0.1030  0.1020  0.1020  0.1020  0.2300  0.2300  0.2500  0.2200  0.2200  0.2200  0.2500  0.2500  0.2500  0.4400  0.4400  0.4400  0.4400  0.4400  0.4400  0.4400  0.4400  0.4400  1.2000  1.2000  1.2000  1.2000  1.2000  1.2000  1.2000  1.2000  1.2000  0.1788  0.1678  0.1957  0.1856  0.1988  0.2122  0.2291  0.2324  0.2353
 1975 188    57   0.0960  0.0960  0.1120  0.0940  0.1030  0.1030  0.1020  0.1020  0.1020  0.2300  0.2300  0.2500  0.2200  0.2200  0.2200  0.2500  0.2500  0.2500  0.4400  0.4400  0.4400  0.4400  0.4400  0.4400  0.4400  0.4400  0.4400  1.2000  1.2000  1.2000  1.2000  1.2000  1.2000  1.2000  1.2000  1.2000  0.1585  0.1616  0.1904  0.1821  0.1963  0.2111  0.2290  0.2324  0.2353
 1975 189    58   0.0960  0.0960  0.1120  0.0940  0.1030  0.1030  0.1020  0.1020  0.1020  0.2300  0.2300  0.2500  0.2200  0.2200  0.2200  0.2500  0.2500  0.2500  0.4400  0.4400  0.4400  0.4400  0.4400  0.4400  0.4400  0.4400  0.4400  1.2000  1.2000  1.2000  1.2000  1.2000  1.2000  1.2000  1.2000  1.2000  0.1389  0.1546  0.1843  0.1779  0.1934  0.2096  0.2288  0.2324  0.2352
 1975 190    59   0.0960  0.0960  0.1120  0.0940  0.1030  0.1030  0.1020  0.1020  0.1020  0.2300  0.2300  0.2500  0.2200  0.2200  0.2200  0.2500  0.2500  0.2500  0.4400  0.4400  0.4400  0.4400  0.4400  0.4400  0.4400  0.4400  0.4400  1.2000  1.2000  1.2000  1.2000  1.2000  1.2000  1.2000  1.2000  1.2000  0.1256  0.1466  0.1772  0.1731  0.1899  0.2078  0.2285  0.2324  0.2352
 1975 191    60   0.0960  0.0960  0.1120  0.0940  0.1030  0.1030  0.1020  0.1020  0.1020  0.2300  0.2300  0.2500  0.2200  0.2200  0.2200  0.2500  0.2500  0.2500  0.4400  0.4400  0.4400  0.4400  0.4400  0.4400  0.4400  0.4400  0.4400  1.2000  1.2000  1.2000  1.2000  1.2000  1.2000  1.2000  1.2000  1.2000  0.1158  0.1393  0.1689  0.1674  0.1858  0.2055  0.2281  0.2324  0.2352
 1975 192    61   0.0960  0.0960  0.1120  0.0940  0.1030  0.1030  0.1020  0.1020  0.1020  0.2300  0.2300  0.2500  0.2200  0.2200  0.2200  0.2500  0.2500  0.2500  0.4400  0.4400  0.4400  0.4400  0.4400  0.4400  0.4400  0.4400  0.4400  1.2000  1.2000  1.2000  1.2000  1.2000  1.2000  1.2000  1.2000  1.2000  0.1075  0.1350  0.1595  0.1610  0.1810  0.2028  0.2275  0.2324  0.2352
 1975 193    62   0.0960  0.0960  0.1120  0.0940  0.1030  0.1030  0.1020  0.1020  0.1020  0.2300  0.2300  0.2500  0.2200  0.2200  0.2200  0.2500  0.2500  0.2500  0.4400  0.4400  0.4400  0.4400  0.4400  0.4400  0.4400  0.4400  0.4400  1.2000  1.2000  1.2000  1.2000  1.2000  1.2000  1.2000  1.2000  1.2000  0.1002  0.1310  0.1533  0.1520  0.1744  0.1989  0.2266  0.2324  0.2352
 1975 194    63   0.0960  0.0960  0.1120  0.0940  0.1030  0.1030  0.1020  0.1020  0.1020  0.2300  0.2300  0.2500  0.2200  0.2200  0.2200  0.2500  0.2500  0.2500  0.4400  0.4400  0.4400  0.4400  0.4400  0.4400  0.4400  0.4400  0.4400  1.2000  1.2000  1.2000  1.2000  1.2000  1.2000  1.2000  1.2000  1.2000  0.0938  0.1278  0.1493  0.1419  0.1668  0.1944  0.2253  0.2323  0.2352
 1975 195    64   0.0960  0.0960  0.1120  0.0940  0.1030  0.1030  0.1020  0.1020  0.1020  0.2300  0.2300  0.2500  0.2200  0.2200  0.2200  0.2500  0.2500  0.2500  0.4400  0.4400  0.4400  0.4400  0.4400  0.4400  0.4400  0.4400  0.4400  1.2000  1.2000  1.2000  1.2000  1.2000  1.2000  1.2000  1.2000  1.2000  0.0880  0.1248  0.1458  0.1344  0.1573  0.1886  0.2235  0.2323  0.2352
 1975 196    65   0.0960  0.0960  0.1120  0.0940  0.1030  0.1030  0.1020  0.1020  0.1020  0.2300  0.2300  0.2500  0.2200  0.2200  0.2200  0.2500  0.2500  0.2500  0.4400  0.4400  0.4400  0.4400  0.4400  0.4400  0.4400  0.4400  0.4400  1.2000  1.2000  1.2000  1.2000  1.2000  1.2000  1.2000  1.2000  1.2000  0.0827  0.1220  0.1426  0.1298  0.1460  0.1811  0.2211  0.2322  0.2352
 1975 197    66   0.0960  0.0960  0.1120  0.0940  0.1030  0.1030  0.1020  0.1020  0.1020  0.2300  0.2300  0.2500  0.2200  0.2200  0.2200  0.2500  0.2500  0.2500  0.4400  0.4400  0.4400  0.4400  0.4400  0.4400  0.4400  0.4400  0.4400  1.2000  1.2000  1.2000  1.2000  1.2000  1.2000  1.2000  1.2000  1.2000  0.1543  0.1197  0.1401  0.1267  0.1419  0.1732  0.2183  0.2321  0.2352
 1975 198    67   0.0960  0.0960  0.1120  0.0940  0.1030  0.1030  0.1020  0.1020  0.1020  0.2300  0.2300  0.2500  0.2200  0.2200  0.2200  0.2500  0.2500  0.2500  0.4400  0.4400  0.4400  0.4400  0.4400  0.4400  0.4400  0.4400  0.4400  1.2000  1.2000  1.2000  1.2000  1.2000  1.2000  1.2000  1.2000  1.2000  0.1173  0.1179  0.1383  0.1246  0.1393  0.1659  0.2157  0.2319  0.2352
 1975 199    68   0.0960  0.0960  0.1120  0.0940  0.1030  0.1030  0.1020  0.1020  0.1020  0.2300  0.2300  0.2500  0.2200  0.2200  0.2200  0.2500  0.2500  0.2500  0.4400  0.4400  0.4400  0.4400  0.4400  0.4400  0.4400  0.4400  0.4400  1.2000  1.2000  1.2000  1.2000  1.2000  1.2000  1.2000  1.2000  1.2000  0.1077  0.1159  0.1362  0.1223  0.1366  0.1561  0.2121  0.2316  0.2352
 1975 200    69   0.0960  0.0960  0.1120  0.0940  0.1030  0.1030  0.1020  0.1020  0.1020  0.2300  0.2300  0.2500  0.2200  0.2200  0.2200  0.2500  0.2500  0.2500  0.4400  0.4400  0.4400  0.4400  0.4400  0.4400  0.4400  0.4400  0.4400  1.2000  1.2000  1.2000  1.2000  1.2000  1.2000  1.2000  1.2000  1.2000  0.1000  0.1142  0.1345  0.1203  0.1344  0.1476  0.2080  0.2312  0.2352
 1975 201    70   0.0960  0.0960  0.1120  0.0940  0.1030  0.1030  0.1020  0.1020  0.1020  0.2300  0.2300  0.2500  0.2200  0.2200  0.2200  0.2500  0.2500  0.2500  0.4400  0.4400  0.4400  0.4400  0.4400  0.4400  0.4400  0.4400  0.4400  1.2000  1.2000  1.2000  1.2000  1.2000  1.2000  1.2000  1.2000  1.2000  0.0936  0.1126  0.1329  0.1187  0.1325  0.1436  0.2037  0.2308  0.2352
 1975 202    71   0.0960  0.0960  0.1120  0.0940  0.1030  0.1030  0.1020  0.1020  0.1020  0.2300  0.2300  0.2500  0.2200  0.2200  0.2200  0.2500  0.2500  0.2500  0.4400  0.4400  0.4400  0.4400  0.4400  0.4400  0.4400  0.4400  0.4400  1.2000  1.2000  1.2000  1.2000  1.2000  1.2000  1.2000  1.2000  1.2000  0.0878  0.1112  0.1315  0.1172  0.1309  0.1408  0.1992  0.2302  0.2352
 1975 203    72   0.0960  0.0960  0.1120  0.0940  0.1030  0.1030  0.1020  0.1020  0.1020  0.2300  0.2300  0.2500  0.2200  0.2200  0.2200  0.2500  0.2500  0.2500  0.4400  0.4400  0.4400  0.4400  0.4400  0.4400  0.4400  0.4400  0.4400  1.2000  1.2000  1.2000  1.2000  1.2000  1.2000  1.2000  1.2000  1.2000  0.0826  0.1099  0.1302  0.1160  0.1295  0.1385  0.1946  0.2296  0.2351
 1975 204    73   0.0960  0.0960  0.1120  0.0940  0.1030  0.1030  0.1020  0.1020  0.1020  0.2300  0.2300  0.2500  0.2200  0.2200  0.2200  0.2500  0.2500  0.2500  0.4400  0.4400  0.4400  0.4400  0.4400  0.4400  0.4400  0.4400  0.4400  1.2000  1.2000  1.2000  1.2000  1.2000  1.2000  1.2000  1.2000  1.2000  0.0778  0.1086  0.1291  0.1148  0.1283  0.1367  0.1898  0.2289  0.2351
 1975 205    74   0.0960  0.0960  0.1120  0.0940  0.1030  0.1030  0.1020  0.1020  0.1020  0.2300  0.2300  0.2500  0.2200  0.2200  0.2200  0.2500  0.2500  0.2500  0.4400  0.4400  0.4400  0.4400  0.4400  0.4400  0.4400  0.4400  0.4400  1.2000  1.2000  1.2000  1.2000  1.2000  1.2000  1.2000  1.2000  1.2000  0.0734  0.1075  0.1280  0.1137  0.1271  0.1351  0.1848  0.2282  0.2351
 1975 206    75   0.0960  0.0960  0.1120  0.0940  0.1030  0.1030  0.1020  0.1020  0.1020  0.2300  0.2300  0.2500  0.2200  0.2200  0.2200  0.2500  0.2500  0.2500  0.4400  0.4400  0.4400  0.4400  0.4400  0.4400  0.4400  0.4400  0.4400  1.2000  1.2000  1.2000  1.2000  1.2000  1.2000  1.2000  1.2000  1.2000  0.0694  0.1064  0.1270  0.1128  0.1261  0.1337  0.1798  0.2274  0.2351
 1975 207    76   0.0960  0.0960  0.1120  0.0940  0.1030  0.1030  0.1020  0.1020  0.1020  0.2300  0.2300  0.2500  0.2200  0.2200  0.2200  0.2500  0.2500  0.2500  0.4400  0.4400  0.4400  0.4400  0.4400  0.4400  0.4400  0.4400  0.4400  1.2000  1.2000  1.2000  1.2000  1.2000  1.2000  1.2000  1.2000  1.2000  0.0658  0.1054  0.1261  0.1119  0.1251  0.1325  0.1746  0.2265  0.2351
 1975 208    77   0.0960  0.0960  0.1120  0.0940  0.1030  0.1030  0.1020  0.1020  0.1020  0.2300  0.2300  0.2500  0.2200  0.2200  0.2200  0.2500  0.2500  0.2500  0.4400  0.4400  0.4400  0.4400  0.4400  0.4400  0.4400  0.4400  0.4400  1.2000  1.2000  1.2000  1.2000  1.2000  1.2000  1.2000  1.2000  1.2000  0.0625  0.1045  0.1253  0.1111  0.1243  0.1314  0.1694  0.2256  0.2351
 1975 209    78   0.0960  0.0960  0.1120  0.0940  0.1030  0.1030  0.1020  0.1020  0.1020  0.2300  0.2300  0.2500  0.2200  0.2200  0.2200  0.2500  0.2500  0.2500  0.4400  0.4400  0.4400  0.4400  0.4400  0.4400  0.4400  0.4400  0.4400  1.2000  1.2000  1.2000  1.2000  1.2000  1.2000  1.2000  1.2000  1.2000  0.0595  0.1036  0.1245  0.1103  0.1235  0.1304  0.1642  0.2247  0.2351
 1975 210    79   0.0960  0.0960  0.1120  0.0940  0.1030  0.1030  0.1020  0.1020  0.1020  0.2300  0.2300  0.2500  0.2200  0.2200  0.2200  0.2500  0.2500  0.2500  0.4400  0.4400  0.4400  0.4400  0.4400  0.4400  0.4400  0.4400  0.4400  1.2000  1.2000  1.2000  1.2000  1.2000  1.2000  1.2000  1.2000  1.2000  0.1484  0.1028  0.1238  0.1096  0.1227  0.1295  0.1590  0.2238  0.2351
 1975 211    80   0.0960  0.0960  0.1120  0.0940  0.1030  0.1030  0.1020  0.1020  0.1020  0.2300  0.2300  0.2500  0.2200  0.2200  0.2200  0.2500  0.2500  0.2500  0.4400  0.4400  0.4400  0.4400  0.4400  0.4400  0.4400  0.4400  0.4400  1.2000  1.2000  1.2000  1.2000  1.2000  1.2000  1.2000  1.2000  1.2000  0.1393  0.1022  0.1235  0.1094  0.1225  0.1292  0.1571  0.2234  0.2351
 1975 212    81   0.0960  0.0960  0.1120  0.0940  0.1030  0.1030  0.1020  0.1020  0.1020  0.2300  0.2300  0.2500  0.2200  0.2200  0.2200  0.2500  0.2500  0.2500  0.4400  0.4400  0.4400  0.4400  0.4400  0.4400  0.4400  0.4400  0.4400  1.2000  1.2000  1.2000  1.2000  1.2000  1.2000  1.2000  1.2000  1.2000  0.3315  0.2211  0.1225  0.1087  0.1218  0.1285  0.1548  0.2225  0.2346
 1975 213    82   0.0960  0.0960  0.1120  0.0940  0.1030  0.1030  0.1020  0.1020  0.1020  0.2300  0.2300  0.2500  0.2200  0.2200  0.2200  0.2500  0.2500  0.2500  0.4400  0.4400  0.4400  0.4400  0.4400  0.4400  0.4400  0.4400  0.4400  1.2000  1.2000  1.2000  1.2000  1.2000  1.2000  1.2000  1.2000  1.2000  0.2729  0.2296  0.1267  0.1081  0.1213  0.1280  0.1538  0.2218  0.2341
 1975 214    83   0.0960  0.0960  0.1120  0.0940  0.1030  0.1030  0.1020  0.1020  0.1020  0.2300  0.2300  0.2500  0.2200  0.2200  0.2200  0.2500  0.2500  0.2500  0.4400  0.4400  0.4400  0.4400  0.4400  0.4400  0.4400  0.4400  0.4400  1.2000  1.2000  1.2000  1.2000  1.2000  1.2000  1.2000  1.2000  1.2000  0.2298  0.2210  0.1285  0.1071  0.1203  0.1271  0.1521  0.2205  0.2332
 1975 215    84   0.0960  0.0960  0.1120  0.0940  0.1030  0.1030  0.1020  0.1020  0.1020  0.2300  0.2300  0.2500  0.2200  0.2200  0.2200  0.2500  0.2500  0.2500  0.4400  0.4400  0.4400  0.4400  0.4400  0.4400  0.4400  0.4400  0.4400  1.2000  1.2000  1.2000  1.2000  1.2000  1.2000  1.2000  1.2000  1.2000  0.2147  0.2124  0.1272  0.1063  0.1196  0.1264  0.1509  0.2196  0.2325
 1975 216    85   0.0960  0.0960  0.1120  0.0940  0.1030  0.1030  0.1020  0.1020  0.1020  0.2300  0.2300  0.2500  0.2200  0.2200  0.2200  0.2500  0.2500  0.2500  0.4400  0.4400  0.4400  0.4400  0.4400  0.4400  0.4400  0.4400  0.4400  1.2000  1.2000  1.2000  1.2000  1.2000  1.2000  1.2000  1.2000  1.2000  0.1915  0.2057  0.1269  0.1062  0.1195  0.1263  0.1505  0.2194  0.2325
 1975 217    86   0.0960  0.0960  0.1120  0.0940  0.1030  0.1030  0.1020  0.1020  0.1020  0.2300  0.2300  0.2500  0.2200  0.2200  0.2200  0.2500  0.2500  0.2500  0.4400  0.4400  0.4400  0.4400  0.4400  0.4400  0.4400  0.4400  0.4400  1.2000  1.2000  1.2000  1.2000  1.2000  1.2000  1.2000  1.2000  1.2000  0.1671  0.1962  0.1266  0.1060  0.1193  0.1261  0.1498  0.2191  0.2325
 1975 218    87   0.0960  0.0960  0.1120  0.0940  0.1030  0.1030  0.1020  0.1020  0.1020  0.2300  0.2300  0.2500  0.2200  0.2200  0.2200  0.2500  0.2500  0.2500  0.4400  0.4400  0.4400  0.4400  0.4400  0.4400  0.4400  0.4400  0.4400  1.2000  1.2000  1.2000  1.2000  1.2000  1.2000  1.2000  1.2000  1.2000  0.1458  0.1876  0.1263  0.1059  0.1192  0.1260  0.1492  0.2189  0.2324
 1975 219    88   0.0960  0.0960  0.1120  0.0940  0.1030  0.1030  0.1020  0.1020  0.1020  0.2300  0.2300  0.2500  0.2200  0.2200  0.2200  0.2500  0.2500  0.2500  0.4400  0.4400  0.4400  0.4400  0.4400  0.4400  0.4400  0.4400  0.4400  1.2000  1.2000  1.2000  1.2000  1.2000  1.2000  1.2000  1.2000  1.2000  0.2709  0.2085  0.1262  0.1058  0.1191  0.1259  0.1490  0.2188  0.2324
 1975 220    89   0.0960  0.0960  0.1120  0.0940  0.1030  0.1030  0.1020  0.1020  0.1020  0.2300  0.2300  0.2500  0.2200  0.2200  0.2200  0.2500  0.2500  0.2500  0.4400  0.4400  0.4400  0.4400  0.4400  0.4400  0.4400  0.4400  0.4400  1.2000  1.2000  1.2000  1.2000  1.2000  1.2000  1.2000  1.2000  1.2000  0.2246  0.2080  0.1242  0.1047  0.1181  0.1249  0.1477  0.2174  0.2313
 1975 221    90   0.0960  0.0960  0.1120  0.0940  0.1030  0.1030  0.1020  0.1020  0.1020  0.2300  0.2300  0.2500  0.2200  0.2200  0.2200  0.2500  0.2500  0.2500  0.4400  0.4400  0.4400  0.4400  0.4400  0.4400  0.4400  0.4400  0.4400  1.2000  1.2000  1.2000  1.2000  1.2000  1.2000  1.2000  1.2000  1.2000  0.2028  0.2032  0.1240  0.1046  0.1180  0.1249  0.1475  0.2173  0.2313
 1975 222    91   0.0960  0.0960  0.1120  0.0940  0.1030  0.1030  0.1020  0.1020  0.1020  0.2300  0.2300  0.2500  0.2200  0.2200  0.2200  0.2500  0.2500  0.2500  0.4400  0.4400  0.4400  0.4400  0.4400  0.4400  0.4400  0.4400  0.4400  1.2000  1.2000  1.2000  1.2000  1.2000  1.2000  1.2000  1.2000  1.2000  0.1841  0.1995  0.1239  0.1045  0.1180  0.1248  0.1473  0.2172  0.2313
 1975 223    92   0.0960  0.0960  0.1120  0.0940  0.1030  0.1030  0.1020  0.1020  0.1020  0.2300  0.2300  0.2500  0.2200  0.2200  0.2200  0.2500  0.2500  0.2500  0.4400  0.4400  0.4400  0.4400  0.4400  0.4400  0.4400  0.4400  0.4400  1.2000  1.2000  1.2000  1.2000  1.2000  1.2000  1.2000  1.2000  1.2000  0.2061  0.1966  0.1237  0.1045  0.1179  0.1248  0.1472  0.2171  0.2312
 1975 224    93   0.0960  0.0960  0.1120  0.0940  0.1030  0.1030  0.1020  0.1020  0.1020  0.2300  0.2300  0.2500  0.2200  0.2200  0.2200  0.2500  0.2500  0.2500  0.4400  0.4400  0.4400  0.4400  0.4400  0.4400  0.4400  0.4400  0.4400  1.2000  1.2000  1.2000  1.2000  1.2000  1.2000  1.2000  1.2000  1.2000  0.1884  0.1941  0.1236  0.1044  0.1179  0.1247  0.1471  0.2170  0.2312
 1975 225    94   0.0960  0.0960  0.1120  0.0940  0.1030  0.1030  0.1020  0.1020  0.1020  0.2300  0.2300  0.2500  0.2200  0.2200  0.2200  0.2500  0.2500  0.2500  0.4400  0.4400  0.4400  0.4400  0.4400  0.4400  0.4400  0.4400  0.4400  1.2000  1.2000  1.2000  1.2000  1.2000  1.2000  1.2000  1.2000  1.2000  0.1734  0.1925  0.1235  0.1044  0.1179  0.1247  0.1470  0.2170  0.2312
 1975 226    95   0.0960  0.0960  0.1120  0.0940  0.1030  0.1030  0.1020  0.1020  0.1020  0.2300  0.2300  0.2500  0.2200  0.2200  0.2200  0.2500  0.2500  0.2500  0.4400  0.4400  0.4400  0.4400  0.4400  0.4400  0.4400  0.4400  0.4400  1.2000  1.2000  1.2000  1.2000  1.2000  1.2000  1.2000  1.2000  1.2000  0.1603  0.1915  0.1234  0.1043  0.1178  0.1247  0.1470  0.2170  0.2312
 1975 227    96   0.0960  0.0960  0.1120  0.0940  0.1030  0.1030  0.1020  0.1020  0.1020  0.2300  0.2300  0.2500  0.2200  0.2200  0.2200  0.2500  0.2500  0.2500  0.4400  0.4400  0.4400  0.4400  0.4400  0.4400  0.4400  0.4400  0.4400  1.2000  1.2000  1.2000  1.2000  1.2000  1.2000  1.2000  1.2000  1.2000  0.1486  0.1905  0.1233  0.1043  0.1178  0.1247  0.1470  0.2170  0.2312
 1975 228    97   0.0960  0.0960  0.1120  0.0940  0.1030  0.1030  0.1020  0.1020  0.1020  0.2300  0.2300  0.2500  0.2200  0.2200  0.2200  0.2500  0.2500  0.2500  0.4400  0.4400  0.4400  0.4400  0.4400  0.4400  0.4400  0.4400  0.4400  1.2000  1.2000  1.2000  1.2000  1.2000  1.2000  1.2000  1.2000  1.2000  0.1379  0.1896  0.1232  0.1043  0.1178  0.1247  0.1470  0.2170  0.2312
 1975 229    98   0.0960  0.0960  0.1120  0.0940  0.1030  0.1030  0.1020  0.1020  0.1020  0.2300  0.2300  0.2500  0.2200  0.2200  0.2200  0.2500  0.2500  0.2500  0.4400  0.4400  0.4400  0.4400  0.4400  0.4400  0.4400  0.4400  0.4400  1.2000  1.2000  1.2000  1.2000  1.2000  1.2000  1.2000  1.2000  1.2000  0.2234  0.1918  0.1231  0.1043  0.1178  0.1247  0.1470  0.2170  0.2312
 1975 230    99   0.0960  0.0960  0.1120  0.0940  0.1030  0.1030  0.1020  0.1020  0.1020  0.2300  0.2300  0.2500  0.2200  0.2200  0.2200  0.2500  0.2500  0.2500  0.4400  0.4400  0.4400  0.4400  0.4400  0.4400  0.4400  0.4400  0.4400  1.2000  1.2000  1.2000  1.2000  1.2000  1.2000  1.2000  1.2000  1.2000  0.2061  0.1909  0.1230  0.1042  0.1178  0.1246  0.1470  0.2169  0.2312
 1975 231   100   0.0960  0.0960  0.1120  0.0940  0.1030  0.1030  0.1020  0.1020  0.1020  0.2300  0.2300  0.2500  0.2200  0.2200  0.2200  0.2500  0.2500  0.2500  0.4400  0.4400  0.4400  0.4400  0.4400  0.4400  0.4400  0.4400  0.4400  1.2000  1.2000  1.2000  1.2000  1.2000  1.2000  1.2000  1.2000  1.2000  0.2832  0.2150  0.1212  0.1032  0.1168  0.1238  0.1461  0.2157  0.2301
 1975 232   101   0.0960  0.0960  0.1120  0.0940  0.1030  0.1030  0.1020  0.1020  0.1020  0.2300  0.2300  0.2500  0.2200  0.2200  0.2200  0.2500  0.2500  0.2500  0.4400  0.4400  0.4400  0.4400  0.4400  0.4400  0.4400  0.4400  0.4400  1.2000  1.2000  1.2000  1.2000  1.2000  1.2000  1.2000  1.2000  1.2000  0.2862  0.2322  0.1254  0.1022  0.1159  0.1230  0.1452  0.2145  0.2290
 1975 233   102   0.0960  0.0960  0.1120  0.0940  0.1030  0.1030  0.1020  0.1020  0.1020  0.2300  0.2300  0.2500  0.2200  0.2200  0.2200  0.2500  0.2500  0.2500  0.4400  0.4400  0.4400  0.4400  0.4400  0.4400  0.4400  0.4400  0.4400  1.2000  1.2000  1.2000  1.2000  1.2000  1.2000  1.2000  1.2000  1.2000  0.3099  0.2950  0.1732  0.1008  0.1147  0.1218  0.1440  0.2129  0.2275
