*SOIL WATER BY LAYER DAILY OUTPUT FILE

*DSSAT Cropping System Model Ver. 4.8.5.021 -develop  JUL 11, 2025 15:43:00

!----------------------------
! Variable Descriptions (unit)
!----------------------------
!YEAR    Year of current date of simulation (YYYY)
!DOY     Day of year (d)
!DAS     Days after start of simulation (d)
!LL#D    Volumetric soil water content at Lower Limit in soil layer # (cm3 [water] / cm3 [soil])
!DUL#D   Volumetric soil water content at Drained Upper Limit in soil layer # (cm3[water]/cm3[soil])
!SAT#D   Volumetric soil water content at Saturation in soil layer # (cm3 [water] / cm3 [soil])
!BD#D    Bulk density in soil layer # (g [soil] / cm3 [soil])
!SW#D    Volumetric soil water content in soil layer #  (cm3 [water] / cm3 [soil])

!                    0-5    5-15   15-25   25-35   35-45   45-55   55-65   65-95  95-125 125-155     0-5    5-15   15-25   25-35   35-45   45-55   55-65   65-95  95-125 125-155     0-5    5-15   15-25   25-35   35-45   45-55   55-65   65-95  95-125 125-155     0-5    5-15   15-25   25-35   35-45   45-55   55-65   65-95  95-125 125-155     0-5    5-15   15-25   25-35   35-45   45-55   55-65   65-95  95-125 125-155
@YEAR DOY   DAS     LL1D    LL2D    LL3D    LL4D    LL5D    LL6D    LL7D    LL8D    LL9D   LL10D   DUL1D   DUL2D   DUL3D   DUL4D   DUL5D   DUL6D   DUL7D   DUL8D   DUL9D  DUL10D   SAT1D   SAT2D   SAT3D   SAT4D   SAT5D   SAT6D   SAT7D   SAT8D   SAT9D  SAT10D    BD1D    BD2D    BD3D    BD4D    BD5D    BD6D    BD7D    BD8D    BD9D   BD10D    SW1D    SW2D    SW3D    SW4D    SW5D    SW6D    SW7D    SW8D    SW9D   SW10D
 1974 305     1   0.1100  0.1300  0.1500  0.2200  0.2200  0.2200  0.2200  0.2200  0.2200  0.2200  0.2800  0.3000  0.3200  0.3700  0.3700  0.3700  0.3700  0.3700  0.3700  0.3700  0.3300  0.3750  0.4200  0.4200  0.4200  0.4200  0.4200  0.4200  0.4200  0.4200  1.1000  1.1500  1.2000  1.2500  1.2500  1.2500  1.2500  1.2500  1.2500  1.2500  0.3069  0.3244  0.3372  0.3472  0.3299  0.3299  0.3299  0.3299  0.3300  0.3300
 1974 306     2   0.1100  0.1300  0.1500  0.2200  0.2200  0.2200  0.2200  0.2200  0.2200  0.2200  0.2800  0.3000  0.3200  0.3700  0.3700  0.3700  0.3700  0.3700  0.3700  0.3700  0.3300  0.3750  0.4200  0.4200  0.4200  0.4200  0.4200  0.4200  0.4200  0.4200  1.1000  1.1500  1.2000  1.2500  1.2500  1.2500  1.2500  1.2500  1.2500  1.2500  0.2979  0.3156  0.3363  0.3636  0.3297  0.3298  0.3298  0.3298  0.3299  0.3299
 1974 307     3   0.1100  0.1300  0.1500  0.2200  0.2200  0.2200  0.2200  0.2200  0.2200  0.2200  0.2800  0.3000  0.3200  0.3700  0.3700  0.3700  0.3700  0.3700  0.3700  0.3700  0.3300  0.3750  0.4200  0.4200  0.4200  0.4200  0.4200  0.4200  0.4200  0.4200  1.1000  1.1500  1.2000  1.2500  1.2500  1.2500  1.2500  1.2500  1.2500  1.2500  0.3048  0.3214  0.3387  0.3760  0.3359  0.3295  0.3295  0.3296  0.3297  0.3297
 1974 308     4   0.1100  0.1300  0.1500  0.2200  0.2200  0.2200  0.2200  0.2200  0.2200  0.2200  0.2800  0.3000  0.3200  0.3700  0.3700  0.3700  0.3700  0.3700  0.3700  0.3700  0.3300  0.3750  0.4200  0.4200  0.4200  0.4200  0.4200  0.4200  0.4200  0.4200  1.1000  1.1500  1.2000  1.2500  1.2500  1.2500  1.2500  1.2500  1.2500  1.2500  0.2900  0.3097  0.3287  0.3725  0.3647  0.3292  0.3293  0.3294  0.3295  0.3296
 1974 309     5   0.1100  0.1300  0.1500  0.2200  0.2200  0.2200  0.2200  0.2200  0.2200  0.2200  0.2800  0.3000  0.3200  0.3700  0.3700  0.3700  0.3700  0.3700  0.3700  0.3700  0.3300  0.3750  0.4200  0.4200  0.4200  0.4200  0.4200  0.4200  0.4200  0.4200  1.1000  1.1500  1.2000  1.2500  1.2500  1.2500  1.2500  1.2500  1.2500  1.2500  0.2818  0.3036  0.3235  0.3718  0.3695  0.3352  0.3289  0.3291  0.3293  0.3294
 1974 310     6   0.1100  0.1300  0.1500  0.2200  0.2200  0.2200  0.2200  0.2200  0.2200  0.2200  0.2800  0.3000  0.3200  0.3700  0.3700  0.3700  0.3700  0.3700  0.3700  0.3700  0.3300  0.3750  0.4200  0.4200  0.4200  0.4200  0.4200  0.4200  0.4200  0.4200  1.1000  1.1500  1.2000  1.2500  1.2500  1.2500  1.2500  1.2500  1.2500  1.2500  0.2831  0.3020  0.3226  0.3720  0.3716  0.3349  0.3286  0.3289  0.3291  0.3292
 1974 311     7   0.1100  0.1300  0.1500  0.2200  0.2200  0.2200  0.2200  0.2200  0.2200  0.2200  0.2800  0.3000  0.3200  0.3700  0.3700  0.3700  0.3700  0.3700  0.3700  0.3700  0.3300  0.3750  0.4200  0.4200  0.4200  0.4200  0.4200  0.4200  0.4200  0.4200  1.1000  1.1500  1.2000  1.2500  1.2500  1.2500  1.2500  1.2500  1.2500  1.2500  0.2951  0.3039  0.3232  0.3725  0.3720  0.3369  0.3285  0.3288  0.3290  0.3292
 1974 312     8   0.1100  0.1300  0.1500  0.2200  0.2200  0.2200  0.2200  0.2200  0.2200  0.2200  0.2800  0.3000  0.3200  0.3700  0.3700  0.3700  0.3700  0.3700  0.3700  0.3700  0.3300  0.3750  0.4200  0.4200  0.4200  0.4200  0.4200  0.4200  0.4200  0.4200  1.1000  1.1500  1.2000  1.2500  1.2500  1.2500  1.2500  1.2500  1.2500  1.2500  0.2896  0.3037  0.3234  0.3729  0.3724  0.3393  0.3284  0.3287  0.3290  0.3291
 1974 313     9   0.1100  0.1300  0.1500  0.2200  0.2200  0.2200  0.2200  0.2200  0.2200  0.2200  0.2800  0.3000  0.3200  0.3700  0.3700  0.3700  0.3700  0.3700  0.3700  0.3700  0.3300  0.3750  0.4200  0.4200  0.4200  0.4200  0.4200  0.4200  0.4200  0.4200  1.1000  1.1500  1.2000  1.2500  1.2500  1.2500  1.2500  1.2500  1.2500  1.2500  0.3067  0.3081  0.3257  0.3742  0.3733  0.3426  0.3283  0.3286  0.3289  0.3291
 1974 314    10   0.1100  0.1300  0.1500  0.2200  0.2200  0.2200  0.2200  0.2200  0.2200  0.2200  0.2800  0.3000  0.3200  0.3700  0.3700  0.3700  0.3700  0.3700  0.3700  0.3700  0.3300  0.3750  0.4200  0.4200  0.4200  0.4200  0.4200  0.4200  0.4200  0.4200  1.1000  1.1500  1.2000  1.2500  1.2500  1.2500  1.2500  1.2500  1.2500  1.2500  0.3039  0.3255  0.3354  0.3795  0.3762  0.3489  0.3280  0.3283  0.3287  0.3289
 1974 315    11   0.1100  0.1300  0.1500  0.2200  0.2200  0.2200  0.2200  0.2200  0.2200  0.2200  0.2800  0.3000  0.3200  0.3700  0.3700  0.3700  0.3700  0.3700  0.3700  0.3700  0.3300  0.3750  0.4200  0.4200  0.4200  0.4200  0.4200  0.4200  0.4200  0.4200  1.1000  1.1500  1.2000  1.2500  1.2500  1.2500  1.2500  1.2500  1.2500  1.2500  0.3067  0.3365  0.3459  0.3877  0.3819  0.3608  0.3279  0.3283  0.3286  0.3288
 1974 316    12   0.1100  0.1300  0.1500  0.2200  0.2200  0.2200  0.2200  0.2200  0.2200  0.2200  0.2800  0.3000  0.3200  0.3700  0.3700  0.3700  0.3700  0.3700  0.3700  0.3700  0.3300  0.3750  0.4200  0.4200  0.4200  0.4200  0.4200  0.4200  0.4200  0.4200  1.1000  1.1500  1.2000  1.2500  1.2500  1.2500  1.2500  1.2500  1.2500  1.2500  0.2946  0.3208  0.3432  0.3902  0.3859  0.3732  0.3312  0.3281  0.3285  0.3287
 1974 317    13   0.1100  0.1300  0.1500  0.2200  0.2200  0.2200  0.2200  0.2200  0.2200  0.2200  0.2800  0.3000  0.3200  0.3700  0.3700  0.3700  0.3700  0.3700  0.3700  0.3700  0.3300  0.3750  0.4200  0.4200  0.4200  0.4200  0.4200  0.4200  0.4200  0.4200  1.1000  1.1500  1.2000  1.2500  1.2500  1.2500  1.2500  1.2500  1.2500  1.2500  0.3071  0.3374  0.3699  0.3949  0.3949  0.3949  0.3950  0.3609  0.3284  0.3287
 1974 318    14   0.1100  0.1300  0.1500  0.2200  0.2200  0.2200  0.2200  0.2200  0.2200  0.2200  0.2800  0.3000  0.3200  0.3700  0.3700  0.3700  0.3700  0.3700  0.3700  0.3700  0.3300  0.3750  0.4200  0.4200  0.4200  0.4200  0.4200  0.4200  0.4200  0.4200  1.1000  1.1500  1.2000  1.2500  1.2500  1.2500  1.2500  1.2500  1.2500  1.2500  0.3057  0.3368  0.3695  0.3946  0.3947  0.3947  0.3948  0.3774  0.3359  0.3286
 1974 319    15   0.1100  0.1300  0.1500  0.2200  0.2200  0.2200  0.2200  0.2200  0.2200  0.2200  0.2800  0.3000  0.3200  0.3700  0.3700  0.3700  0.3700  0.3700  0.3700  0.3700  0.3300  0.3750  0.4200  0.4200  0.4200  0.4200  0.4200  0.4200  0.4200  0.4200  1.1000  1.1500  1.2000  1.2500  1.2500  1.2500  1.2500  1.2500  1.2500  1.2500  0.3048  0.3363  0.3628  0.3944  0.3945  0.3946  0.3947  0.3805  0.3465  0.3284
 1974 320    16   0.1100  0.1300  0.1500  0.2200  0.2200  0.2200  0.2200  0.2200  0.2200  0.2200  0.2800  0.3000  0.3200  0.3700  0.3700  0.3700  0.3700  0.3700  0.3700  0.3700  0.3300  0.3750  0.4200  0.4200  0.4200  0.4200  0.4200  0.4200  0.4200  0.4200  1.1000  1.1500  1.2000  1.2500  1.2500  1.2500  1.2500  1.2500  1.2500  1.2500  0.3051  0.3335  0.3580  0.3945  0.3946  0.3947  0.3947  0.3812  0.3577  0.3283
 1974 321    17   0.1100  0.1300  0.1500  0.2200  0.2200  0.2200  0.2200  0.2200  0.2200  0.2200  0.2800  0.3000  0.3200  0.3700  0.3700  0.3700  0.3700  0.3700  0.3700  0.3700  0.3300  0.3750  0.4200  0.4200  0.4200  0.4200  0.4200  0.4200  0.4200  0.4200  1.1000  1.1500  1.2000  1.2500  1.2500  1.2500  1.2500  1.2500  1.2500  1.2500  0.3053  0.3366  0.3694  0.3946  0.3946  0.3947  0.3947  0.3948  0.3948  0.3691
 1974 322    18   0.1100  0.1300  0.1500  0.2200  0.2200  0.2200  0.2200  0.2200  0.2200  0.2200  0.2800  0.3000  0.3200  0.3700  0.3700  0.3700  0.3700  0.3700  0.3700  0.3700  0.3300  0.3750  0.4200  0.4200  0.4200  0.4200  0.4200  0.4200  0.4200  0.4200  1.1000  1.1500  1.2000  1.2500  1.2500  1.2500  1.2500  1.2500  1.2500  1.2500  0.3070  0.3366  0.3630  0.3949  0.3949  0.3949  0.3949  0.3893  0.3920  0.3806
 1974 323    19   0.1100  0.1300  0.1500  0.2200  0.2200  0.2200  0.2200  0.2200  0.2200  0.2200  0.2800  0.3000  0.3200  0.3700  0.3700  0.3700  0.3700  0.3700  0.3700  0.3700  0.3300  0.3750  0.4200  0.4200  0.4200  0.4200  0.4200  0.4200  0.4200  0.4200  1.1000  1.1500  1.2000  1.2500  1.2500  1.2500  1.2500  1.2500  1.2500  1.2500  0.3043  0.3362  0.3692  0.3944  0.3945  0.3946  0.3946  0.3899  0.3909  0.3856
 1974 324    20   0.1100  0.1300  0.1500  0.2200  0.2200  0.2200  0.2200  0.2200  0.2200  0.2200  0.2800  0.3000  0.3200  0.3700  0.3700  0.3700  0.3700  0.3700  0.3700  0.3700  0.3300  0.3750  0.4200  0.4200  0.4200  0.4200  0.4200  0.4200  0.4200  0.4200  1.1000  1.1500  1.2000  1.2500  1.2500  1.2500  1.2500  1.2500  1.2500  1.2500  0.3074  0.3374  0.3700  0.3950  0.3950  0.3950  0.3950  0.3940  0.3924  0.3890
 1974 325    21   0.1100  0.1300  0.1500  0.2200  0.2200  0.2200  0.2200  0.2200  0.2200  0.2200  0.2800  0.3000  0.3200  0.3700  0.3700  0.3700  0.3700  0.3700  0.3700  0.3700  0.3300  0.3750  0.4200  0.4200  0.4200  0.4200  0.4200  0.4200  0.4200  0.4200  1.1000  1.1500  1.2000  1.2500  1.2500  1.2500  1.2500  1.2500  1.2500  1.2500  0.3066  0.3371  0.3698  0.3948  0.3948  0.3949  0.3949  0.3949  0.3949  0.3949
 1974 326    22   0.1100  0.1300  0.1500  0.2200  0.2200  0.2200  0.2200  0.2200  0.2200  0.2200  0.2800  0.3000  0.3200  0.3700  0.3700  0.3700  0.3700  0.3700  0.3700  0.3700  0.3300  0.3750  0.4200  0.4200  0.4200  0.4200  0.4200  0.4200  0.4200  0.4200  1.1000  1.1500  1.2000  1.2500  1.2500  1.2500  1.2500  1.2500  1.2500  1.2500  0.2962  0.3218  0.3557  0.3949  0.3949  0.3949  0.3949  0.3883  0.3916  0.3932
 1974 327    23   0.1100  0.1300  0.1500  0.2200  0.2200  0.2200  0.2200  0.2200  0.2200  0.2200  0.2800  0.3000  0.3200  0.3700  0.3700  0.3700  0.3700  0.3700  0.3700  0.3700  0.3300  0.3750  0.4200  0.4200  0.4200  0.4200  0.4200  0.4200  0.4200  0.4200  1.1000  1.1500  1.2000  1.2500  1.2500  1.2500  1.2500  1.2500  1.2500  1.2500  0.2909  0.3128  0.3442  0.3944  0.3946  0.3947  0.3947  0.3832  0.3873  0.3902
 1974 328    24   0.1100  0.1300  0.1500  0.2200  0.2200  0.2200  0.2200  0.2200  0.2200  0.2200  0.2800  0.3000  0.3200  0.3700  0.3700  0.3700  0.3700  0.3700  0.3700  0.3700  0.3300  0.3750  0.4200  0.4200  0.4200  0.4200  0.4200  0.4200  0.4200  0.4200  1.1000  1.1500  1.2000  1.2500  1.2500  1.2500  1.2500  1.2500  1.2500  1.2500  0.3030  0.3110  0.3376  0.3910  0.3927  0.3937  0.3942  0.3806  0.3839  0.3871
 1974 329    25   0.1100  0.1300  0.1500  0.2200  0.2200  0.2200  0.2200  0.2200  0.2200  0.2200  0.2800  0.3000  0.3200  0.3700  0.3700  0.3700  0.3700  0.3700  0.3700  0.3700  0.3300  0.3750  0.4200  0.4200  0.4200  0.4200  0.4200  0.4200  0.4200  0.4200  1.1000  1.1500  1.2000  1.2500  1.2500  1.2500  1.2500  1.2500  1.2500  1.2500  0.2888  0.3044  0.3282  0.3800  0.3809  0.3815  0.3818  0.3750  0.3768  0.3784
 1974 330    26   0.1100  0.1300  0.1500  0.2200  0.2200  0.2200  0.2200  0.2200  0.2200  0.2200  0.2800  0.3000  0.3200  0.3700  0.3700  0.3700  0.3700  0.3700  0.3700  0.3700  0.3300  0.3750  0.4200  0.4200  0.4200  0.4200  0.4200  0.4200  0.4200  0.4200  1.1000  1.1500  1.2000  1.2500  1.2500  1.2500  1.2500  1.2500  1.2500  1.2500  0.2889  0.3037  0.3259  0.3778  0.3793  0.3803  0.3810  0.3742  0.3754  0.3769
 1974 331    27   0.1100  0.1300  0.1500  0.2200  0.2200  0.2200  0.2200  0.2200  0.2200  0.2200  0.2800  0.3000  0.3200  0.3700  0.3700  0.3700  0.3700  0.3700  0.3700  0.3700  0.3300  0.3750  0.4200  0.4200  0.4200  0.4200  0.4200  0.4200  0.4200  0.4200  1.1000  1.1500  1.2000  1.2500  1.2500  1.2500  1.2500  1.2500  1.2500  1.2500  0.2964  0.3051  0.3255  0.3766  0.3779  0.3791  0.3800  0.3737  0.3746  0.3757
 1974 332    28   0.1100  0.1300  0.1500  0.2200  0.2200  0.2200  0.2200  0.2200  0.2200  0.2200  0.2800  0.3000  0.3200  0.3700  0.3700  0.3700  0.3700  0.3700  0.3700  0.3700  0.3300  0.3750  0.4200  0.4200  0.4200  0.4200  0.4200  0.4200  0.4200  0.4200  1.1000  1.1500  1.2000  1.2500  1.2500  1.2500  1.2500  1.2500  1.2500  1.2500  0.3062  0.3107  0.3281  0.3772  0.3775  0.3782  0.3790  0.3733  0.3739  0.3748
 1974 333    29   0.1100  0.1300  0.1500  0.2200  0.2200  0.2200  0.2200  0.2200  0.2200  0.2200  0.2800  0.3000  0.3200  0.3700  0.3700  0.3700  0.3700  0.3700  0.3700  0.3700  0.3300  0.3750  0.4200  0.4200  0.4200  0.4200  0.4200  0.4200  0.4200  0.4200  1.1000  1.1500  1.2000  1.2500  1.2500  1.2500  1.2500  1.2500  1.2500  1.2500  0.3057  0.3223  0.3352  0.3811  0.3792  0.3786  0.3787  0.3730  0.3734  0.3740
 1974 334    30   0.1100  0.1300  0.1500  0.2200  0.2200  0.2200  0.2200  0.2200  0.2200  0.2200  0.2800  0.3000  0.3200  0.3700  0.3700  0.3700  0.3700  0.3700  0.3700  0.3700  0.3300  0.3750  0.4200  0.4200  0.4200  0.4200  0.4200  0.4200  0.4200  0.4200  1.1000  1.1500  1.2000  1.2500  1.2500  1.2500  1.2500  1.2500  1.2500  1.2500  0.2919  0.3107  0.3273  0.3753  0.3744  0.3742  0.3743  0.3729  0.3716  0.3719
 1974 335    31   0.1100  0.1300  0.1500  0.2200  0.2200  0.2200  0.2200  0.2200  0.2200  0.2200  0.2800  0.3000  0.3200  0.3700  0.3700  0.3700  0.3700  0.3700  0.3700  0.3700  0.3300  0.3750  0.4200  0.4200  0.4200  0.4200  0.4200  0.4200  0.4200  0.4200  1.1000  1.1500  1.2000  1.2500  1.2500  1.2500  1.2500  1.2500  1.2500  1.2500  0.2880  0.3068  0.3271  0.3762  0.3752  0.3747  0.3744  0.3721  0.3718  0.3719
 1974 336    32   0.1100  0.1300  0.1500  0.2200  0.2200  0.2200  0.2200  0.2200  0.2200  0.2200  0.2800  0.3000  0.3200  0.3700  0.3700  0.3700  0.3700  0.3700  0.3700  0.3700  0.3300  0.3750  0.4200  0.4200  0.4200  0.4200  0.4200  0.4200  0.4200  0.4200  1.1000  1.1500  1.2000  1.2500  1.2500  1.2500  1.2500  1.2500  1.2500  1.2500  0.2832  0.3031  0.3233  0.3729  0.3725  0.3722  0.3721  0.3720  0.3718  0.3718
 1974 337    33   0.1100  0.1300  0.1500  0.2200  0.2200  0.2200  0.2200  0.2200  0.2200  0.2200  0.2800  0.3000  0.3200  0.3700  0.3700  0.3700  0.3700  0.3700  0.3700  0.3700  0.3300  0.3750  0.4200  0.4200  0.4200  0.4200  0.4200  0.4200  0.4200  0.4200  1.1000  1.1500  1.2000  1.2500  1.2500  1.2500  1.2500  1.2500  1.2500  1.2500  0.2810  0.3013  0.3215  0.3728  0.3724  0.3721  0.3720  0.3720  0.3717  0.3718
 1974 338    34   0.1100  0.1300  0.1500  0.2200  0.2200  0.2200  0.2200  0.2200  0.2200  0.2200  0.2800  0.3000  0.3200  0.3700  0.3700  0.3700  0.3700  0.3700  0.3700  0.3700  0.3300  0.3750  0.4200  0.4200  0.4200  0.4200  0.4200  0.4200  0.4200  0.4200  1.1000  1.1500  1.2000  1.2500  1.2500  1.2500  1.2500  1.2500  1.2500  1.2500  0.2792  0.3005  0.3211  0.3724  0.3721  0.3719  0.3718  0.3718  0.3716  0.3717
 1974 339    35   0.1100  0.1300  0.1500  0.2200  0.2200  0.2200  0.2200  0.2200  0.2200  0.2200  0.2800  0.3000  0.3200  0.3700  0.3700  0.3700  0.3700  0.3700  0.3700  0.3700  0.3300  0.3750  0.4200  0.4200  0.4200  0.4200  0.4200  0.4200  0.4200  0.4200  1.1000  1.1500  1.2000  1.2500  1.2500  1.2500  1.2500  1.2500  1.2500  1.2500  0.2775  0.2998  0.3206  0.3721  0.3719  0.3717  0.3716  0.3716  0.3715  0.3716
 1974 340    36   0.1100  0.1300  0.1500  0.2200  0.2200  0.2200  0.2200  0.2200  0.2200  0.2200  0.2800  0.3000  0.3200  0.3700  0.3700  0.3700  0.3700  0.3700  0.3700  0.3700  0.3300  0.3750  0.4200  0.4200  0.4200  0.4200  0.4200  0.4200  0.4200  0.4200  1.1000  1.1500  1.2000  1.2500  1.2500  1.2500  1.2500  1.2500  1.2500  1.2500  0.2761  0.2991  0.3203  0.3718  0.3716  0.3715  0.3715  0.3715  0.3714  0.3715
 1974 341    37   0.1100  0.1300  0.1500  0.2200  0.2200  0.2200  0.2200  0.2200  0.2200  0.2200  0.2800  0.3000  0.3200  0.3700  0.3700  0.3700  0.3700  0.3700  0.3700  0.3700  0.3300  0.3750  0.4200  0.4200  0.4200  0.4200  0.4200  0.4200  0.4200  0.4200  1.1000  1.1500  1.2000  1.2500  1.2500  1.2500  1.2500  1.2500  1.2500  1.2500  0.2748  0.2986  0.3199  0.3716  0.3714  0.3713  0.3713  0.3714  0.3713  0.3714
 1974 342    38   0.1100  0.1300  0.1500  0.2200  0.2200  0.2200  0.2200  0.2200  0.2200  0.2200  0.2800  0.3000  0.3200  0.3700  0.3700  0.3700  0.3700  0.3700  0.3700  0.3700  0.3300  0.3750  0.4200  0.4200  0.4200  0.4200  0.4200  0.4200  0.4200  0.4200  1.1000  1.1500  1.2000  1.2500  1.2500  1.2500  1.2500  1.2500  1.2500  1.2500  0.2823  0.2995  0.3198  0.3715  0.3714  0.3713  0.3713  0.3714  0.3712  0.3714
 1974 343    39   0.1100  0.1300  0.1500  0.2200  0.2200  0.2200  0.2200  0.2200  0.2200  0.2200  0.2800  0.3000  0.3200  0.3700  0.3700  0.3700  0.3700  0.3700  0.3700  0.3700  0.3300  0.3750  0.4200  0.4200  0.4200  0.4200  0.4200  0.4200  0.4200  0.4200  1.1000  1.1500  1.2000  1.2500  1.2500  1.2500  1.2500  1.2500  1.2500  1.2500  0.2813  0.3000  0.3196  0.3713  0.3712  0.3711  0.3712  0.3713  0.3712  0.3713
 1974 344    40   0.1100  0.1300  0.1500  0.2200  0.2200  0.2200  0.2200  0.2200  0.2200  0.2200  0.2800  0.3000  0.3200  0.3700  0.3700  0.3700  0.3700  0.3700  0.3700  0.3700  0.3300  0.3750  0.4200  0.4200  0.4200  0.4200  0.4200  0.4200  0.4200  0.4200  1.1000  1.1500  1.2000  1.2500  1.2500  1.2500  1.2500  1.2500  1.2500  1.2500  0.3065  0.3310  0.3352  0.3782  0.3747  0.3728  0.3720  0.3718  0.3711  0.3712
 1974 345    41   0.1100  0.1300  0.1500  0.2200  0.2200  0.2200  0.2200  0.2200  0.2200  0.2200  0.2800  0.3000  0.3200  0.3700  0.3700  0.3700  0.3700  0.3700  0.3700  0.3700  0.3300  0.3750  0.4200  0.4200  0.4200  0.4200  0.4200  0.4200  0.4200  0.4200  1.1000  1.1500  1.2000  1.2500  1.2500  1.2500  1.2500  1.2500  1.2500  1.2500  0.3062  0.3322  0.3437  0.3859  0.3802  0.3765  0.3742  0.3715  0.3726  0.3712
 1974 346    42   0.1100  0.1300  0.1500  0.2200  0.2200  0.2200  0.2200  0.2200  0.2200  0.2200  0.2800  0.3000  0.3200  0.3700  0.3700  0.3700  0.3700  0.3700  0.3700  0.3700  0.3300  0.3750  0.4200  0.4200  0.4200  0.4200  0.4200  0.4200  0.4200  0.4200  1.1000  1.1500  1.2000  1.2500  1.2500  1.2500  1.2500  1.2500  1.2500  1.2500  0.3073  0.3372  0.3504  0.3931  0.3867  0.3816  0.3778  0.3721  0.3723  0.3717
 1974 347    43   0.1100  0.1300  0.1500  0.2200  0.2200  0.2200  0.2200  0.2200  0.2200  0.2200  0.2800  0.3000  0.3200  0.3700  0.3700  0.3700  0.3700  0.3700  0.3700  0.3700  0.3300  0.3750  0.4200  0.4200  0.4200  0.4200  0.4200  0.4200  0.4200  0.4200  1.1000  1.1500  1.2000  1.2500  1.2500  1.2500  1.2500  1.2500  1.2500  1.2500  0.2918  0.3178  0.3347  0.3812  0.3780  0.3755  0.3737  0.3719  0.3722  0.3716
 1974 348    44   0.1100  0.1300  0.1500  0.2200  0.2200  0.2200  0.2200  0.2200  0.2200  0.2200  0.2800  0.3000  0.3200  0.3700  0.3700  0.3700  0.3700  0.3700  0.3700  0.3700  0.3300  0.3750  0.4200  0.4200  0.4200  0.4200  0.4200  0.4200  0.4200  0.4200  1.1000  1.1500  1.2000  1.2500  1.2500  1.2500  1.2500  1.2500  1.2500  1.2500  0.2883  0.3102  0.3324  0.3817  0.3798  0.3776  0.3756  0.3718  0.3719  0.3718
 1974 349    45   0.1100  0.1300  0.1500  0.2200  0.2200  0.2200  0.2200  0.2200  0.2200  0.2200  0.2800  0.3000  0.3200  0.3700  0.3700  0.3700  0.3700  0.3700  0.3700  0.3700  0.3300  0.3750  0.4200  0.4200  0.4200  0.4200  0.4200  0.4200  0.4200  0.4200  1.1000  1.1500  1.2000  1.2500  1.2500  1.2500  1.2500  1.2500  1.2500  1.2500  0.2838  0.3054  0.3288  0.3801  0.3799  0.3786  0.3770  0.3719  0.3719  0.3718
 1974 350    46   0.1100  0.1300  0.1500  0.2200  0.2200  0.2200  0.2200  0.2200  0.2200  0.2200  0.2800  0.3000  0.3200  0.3700  0.3700  0.3700  0.3700  0.3700  0.3700  0.3700  0.3300  0.3750  0.4200  0.4200  0.4200  0.4200  0.4200  0.4200  0.4200  0.4200  1.1000  1.1500  1.2000  1.2500  1.2500  1.2500  1.2500  1.2500  1.2500  1.2500  0.3039  0.3076  0.3282  0.3792  0.3795  0.3791  0.3780  0.3723  0.3721  0.3719
 1974 351    47   0.1100  0.1300  0.1500  0.2200  0.2200  0.2200  0.2200  0.2200  0.2200  0.2200  0.2800  0.3000  0.3200  0.3700  0.3700  0.3700  0.3700  0.3700  0.3700  0.3700  0.3300  0.3750  0.4200  0.4200  0.4200  0.4200  0.4200  0.4200  0.4200  0.4200  1.1000  1.1500  1.2000  1.2500  1.2500  1.2500  1.2500  1.2500  1.2500  1.2500  0.2900  0.3030  0.3236  0.3742  0.3745  0.3743  0.3738  0.3721  0.3719  0.3718
 1974 352    48   0.1100  0.1300  0.1500  0.2200  0.2200  0.2200  0.2200  0.2200  0.2200  0.2200  0.2800  0.3000  0.3200  0.3700  0.3700  0.3700  0.3700  0.3700  0.3700  0.3700  0.3300  0.3750  0.4200  0.4200  0.4200  0.4200  0.4200  0.4200  0.4200  0.4200  1.1000  1.1500  1.2000  1.2500  1.2500  1.2500  1.2500  1.2500  1.2500  1.2500  0.2854  0.3023  0.3229  0.3735  0.3739  0.3740  0.3739  0.3716  0.3717  0.3717
 1974 353    49   0.1100  0.1300  0.1500  0.2200  0.2200  0.2200  0.2200  0.2200  0.2200  0.2200  0.2800  0.3000  0.3200  0.3700  0.3700  0.3700  0.3700  0.3700  0.3700  0.3700  0.3300  0.3750  0.4200  0.4200  0.4200  0.4200  0.4200  0.4200  0.4200  0.4200  1.1000  1.1500  1.2000  1.2500  1.2500  1.2500  1.2500  1.2500  1.2500  1.2500  0.2821  0.3020  0.3227  0.3716  0.3719  0.3719  0.3719  0.3716  0.3717  0.3717
 1974 354    50   0.1100  0.1300  0.1500  0.2200  0.2200  0.2200  0.2200  0.2200  0.2200  0.2200  0.2800  0.3000  0.3200  0.3700  0.3700  0.3700  0.3700  0.3700  0.3700  0.3700  0.3300  0.3750  0.4200  0.4200  0.4200  0.4200  0.4200  0.4200  0.4200  0.4200  1.1000  1.1500  1.2000  1.2500  1.2500  1.2500  1.2500  1.2500  1.2500  1.2500  0.2810  0.3015  0.3224  0.3714  0.3717  0.3718  0.3717  0.3714  0.3716  0.3716
 1974 355    51   0.1100  0.1300  0.1500  0.2200  0.2200  0.2200  0.2200  0.2200  0.2200  0.2200  0.2800  0.3000  0.3200  0.3700  0.3700  0.3700  0.3700  0.3700  0.3700  0.3700  0.3300  0.3750  0.4200  0.4200  0.4200  0.4200  0.4200  0.4200  0.4200  0.4200  1.1000  1.1500  1.2000  1.2500  1.2500  1.2500  1.2500  1.2500  1.2500  1.2500  0.3023  0.3053  0.3238  0.3726  0.3721  0.3719  0.3718  0.3720  0.3716  0.3716
 1974 356    52   0.1100  0.1300  0.1500  0.2200  0.2200  0.2200  0.2200  0.2200  0.2200  0.2200  0.2800  0.3000  0.3200  0.3700  0.3700  0.3700  0.3700  0.3700  0.3700  0.3700  0.3300  0.3750  0.4200  0.4200  0.4200  0.4200  0.4200  0.4200  0.4200  0.4200  1.1000  1.1500  1.2000  1.2500  1.2500  1.2500  1.2500  1.2500  1.2500  1.2500  0.3064  0.3094  0.3266  0.3745  0.3733  0.3725  0.3721  0.3727  0.3715  0.3716
 1974 357    53   0.1100  0.1300  0.1500  0.2200  0.2200  0.2200  0.2200  0.2200  0.2200  0.2200  0.2800  0.3000  0.3200  0.3700  0.3700  0.3700  0.3700  0.3700  0.3700  0.3700  0.3300  0.3750  0.4200  0.4200  0.4200  0.4200  0.4200  0.4200  0.4200  0.4200  1.1000  1.1500  1.2000  1.2500  1.2500  1.2500  1.2500  1.2500  1.2500  1.2500  0.2971  0.3078  0.3271  0.3757  0.3744  0.3734  0.3727  0.3717  0.3715  0.3715
 1974 358    54   0.1100  0.1300  0.1500  0.2200  0.2200  0.2200  0.2200  0.2200  0.2200  0.2200  0.2800  0.3000  0.3200  0.3700  0.3700  0.3700  0.3700  0.3700  0.3700  0.3700  0.3300  0.3750  0.4200  0.4200  0.4200  0.4200  0.4200  0.4200  0.4200  0.4200  1.1000  1.1500  1.2000  1.2500  1.2500  1.2500  1.2500  1.2500  1.2500  1.2500  0.2967  0.3070  0.3270  0.3762  0.3752  0.3742  0.3734  0.3727  0.3714  0.3714
 1974 359    55   0.1100  0.1300  0.1500  0.2200  0.2200  0.2200  0.2200  0.2200  0.2200  0.2200  0.2800  0.3000  0.3200  0.3700  0.3700  0.3700  0.3700  0.3700  0.3700  0.3700  0.3300  0.3750  0.4200  0.4200  0.4200  0.4200  0.4200  0.4200  0.4200  0.4200  1.1000  1.1500  1.2000  1.2500  1.2500  1.2500  1.2500  1.2500  1.2500  1.2500  0.3074  0.3197  0.3333  0.3798  0.3775  0.3758  0.3746  0.3721  0.3718  0.3716
 1974 360    56   0.1100  0.1300  0.1500  0.2200  0.2200  0.2200  0.2200  0.2200  0.2200  0.2200  0.2800  0.3000  0.3200  0.3700  0.3700  0.3700  0.3700  0.3700  0.3700  0.3700  0.3300  0.3750  0.4200  0.4200  0.4200  0.4200  0.4200  0.4200  0.4200  0.4200  1.1000  1.1500  1.2000  1.2500  1.2500  1.2500  1.2500  1.2500  1.2500  1.2500  0.3064  0.3370  0.3633  0.3948  0.3877  0.3817  0.3781  0.3723  0.3720  0.3718
 1974 361    57   0.1100  0.1300  0.1500  0.2200  0.2200  0.2200  0.2200  0.2200  0.2200  0.2200  0.2800  0.3000  0.3200  0.3700  0.3700  0.3700  0.3700  0.3700  0.3700  0.3700  0.3300  0.3750  0.4200  0.4200  0.4200  0.4200  0.4200  0.4200  0.4200  0.4200  1.1000  1.1500  1.2000  1.2500  1.2500  1.2500  1.2500  1.2500  1.2500  1.2500  0.2953  0.3213  0.3522  0.3947  0.3948  0.3882  0.3831  0.3733  0.3726  0.3722
 1974 362    58   0.1100  0.1300  0.1500  0.2200  0.2200  0.2200  0.2200  0.2200  0.2200  0.2200  0.2800  0.3000  0.3200  0.3700  0.3700  0.3700  0.3700  0.3700  0.3700  0.3700  0.3300  0.3750  0.4200  0.4200  0.4200  0.4200  0.4200  0.4200  0.4200  0.4200  1.1000  1.1500  1.2000  1.2500  1.2500  1.2500  1.2500  1.2500  1.2500  1.2500  0.2893  0.3122  0.3421  0.3933  0.3939  0.3910  0.3870  0.3744  0.3735  0.3728
 1974 363    59   0.1100  0.1300  0.1500  0.2200  0.2200  0.2200  0.2200  0.2200  0.2200  0.2200  0.2800  0.3000  0.3200  0.3700  0.3700  0.3700  0.3700  0.3700  0.3700  0.3700  0.3300  0.3750  0.4200  0.4200  0.4200  0.4200  0.4200  0.4200  0.4200  0.4200  1.1000  1.1500  1.2000  1.2500  1.2500  1.2500  1.2500  1.2500  1.2500  1.2500  0.2851  0.3069  0.3344  0.3888  0.3913  0.3911  0.3890  0.3753  0.3743  0.3735
 1974 364    60   0.1100  0.1300  0.1500  0.2200  0.2200  0.2200  0.2200  0.2200  0.2200  0.2200  0.2800  0.3000  0.3200  0.3700  0.3700  0.3700  0.3700  0.3700  0.3700  0.3700  0.3300  0.3750  0.4200  0.4200  0.4200  0.4200  0.4200  0.4200  0.4200  0.4200  1.1000  1.1500  1.2000  1.2500  1.2500  1.2500  1.2500  1.2500  1.2500  1.2500  0.2807  0.3026  0.3267  0.3790  0.3803  0.3803  0.3793  0.3725  0.3720  0.3717
 1974 365    61   0.1100  0.1300  0.1500  0.2200  0.2200  0.2200  0.2200  0.2200  0.2200  0.2200  0.2800  0.3000  0.3200  0.3700  0.3700  0.3700  0.3700  0.3700  0.3700  0.3700  0.3300  0.3750  0.4200  0.4200  0.4200  0.4200  0.4200  0.4200  0.4200  0.4200  1.1000  1.1500  1.2000  1.2500  1.2500  1.2500  1.2500  1.2500  1.2500  1.2500  0.2798  0.3022  0.3231  0.3743  0.3750  0.3750  0.3745  0.3724  0.3720  0.3716
 1975 001    62   0.1100  0.1300  0.1500  0.2200  0.2200  0.2200  0.2200  0.2200  0.2200  0.2200  0.2800  0.3000  0.3200  0.3700  0.3700  0.3700  0.3700  0.3700  0.3700  0.3700  0.3300  0.3750  0.4200  0.4200  0.4200  0.4200  0.4200  0.4200  0.4200  0.4200  1.1000  1.1500  1.2000  1.2500  1.2500  1.2500  1.2500  1.2500  1.2500  1.2500  0.2969  0.3044  0.3237  0.3740  0.3745  0.3747  0.3746  0.3719  0.3719  0.3717
 1975 002    63   0.1100  0.1300  0.1500  0.2200  0.2200  0.2200  0.2200  0.2200  0.2200  0.2200  0.2800  0.3000  0.3200  0.3700  0.3700  0.3700  0.3700  0.3700  0.3700  0.3700  0.3300  0.3750  0.4200  0.4200  0.4200  0.4200  0.4200  0.4200  0.4200  0.4200  1.1000  1.1500  1.2000  1.2500  1.2500  1.2500  1.2500  1.2500  1.2500  1.2500  0.2879  0.3020  0.3217  0.3719  0.3721  0.3723  0.3722  0.3719  0.3719  0.3717
 1975 003    64   0.1100  0.1300  0.1500  0.2200  0.2200  0.2200  0.2200  0.2200  0.2200  0.2200  0.2800  0.3000  0.3200  0.3700  0.3700  0.3700  0.3700  0.3700  0.3700  0.3700  0.3300  0.3750  0.4200  0.4200  0.4200  0.4200  0.4200  0.4200  0.4200  0.4200  1.1000  1.1500  1.2000  1.2500  1.2500  1.2500  1.2500  1.2500  1.2500  1.2500  0.2829  0.3015  0.3214  0.3716  0.3720  0.3721  0.3721  0.3718  0.3718  0.3716
 1975 004    65   0.1100  0.1300  0.1500  0.2200  0.2200  0.2200  0.2200  0.2200  0.2200  0.2200  0.2800  0.3000  0.3200  0.3700  0.3700  0.3700  0.3700  0.3700  0.3700  0.3700  0.3300  0.3750  0.4200  0.4200  0.4200  0.4200  0.4200  0.4200  0.4200  0.4200  1.1000  1.1500  1.2000  1.2500  1.2500  1.2500  1.2500  1.2500  1.2500  1.2500  0.2814  0.3008  0.3210  0.3713  0.3717  0.3719  0.3720  0.3716  0.3717  0.3716
 1975 005    66   0.1100  0.1300  0.1500  0.2200  0.2200  0.2200  0.2200  0.2200  0.2200  0.2200  0.2800  0.3000  0.3200  0.3700  0.3700  0.3700  0.3700  0.3700  0.3700  0.3700  0.3300  0.3750  0.4200  0.4200  0.4200  0.4200  0.4200  0.4200  0.4200  0.4200  1.1000  1.1500  1.2000  1.2500  1.2500  1.2500  1.2500  1.2500  1.2500  1.2500  0.2805  0.3004  0.3207  0.3711  0.3715  0.3718  0.3719  0.3716  0.3716  0.3715
 1975 006    67   0.1100  0.1300  0.1500  0.2200  0.2200  0.2200  0.2200  0.2200  0.2200  0.2200  0.2800  0.3000  0.3200  0.3700  0.3700  0.3700  0.3700  0.3700  0.3700  0.3700  0.3300  0.3750  0.4200  0.4200  0.4200  0.4200  0.4200  0.4200  0.4200  0.4200  1.1000  1.1500  1.2000  1.2500  1.2500  1.2500  1.2500  1.2500  1.2500  1.2500  0.3072  0.3068  0.3238  0.3724  0.3720  0.3719  0.3719  0.3722  0.3716  0.3715
 1975 007    68   0.1100  0.1300  0.1500  0.2200  0.2200  0.2200  0.2200  0.2200  0.2200  0.2200  0.2800  0.3000  0.3200  0.3700  0.3700  0.3700  0.3700  0.3700  0.3700  0.3700  0.3300  0.3750  0.4200  0.4200  0.4200  0.4200  0.4200  0.4200  0.4200  0.4200  1.1000  1.1500  1.2000  1.2500  1.2500  1.2500  1.2500  1.2500  1.2500  1.2500  0.2959  0.3064  0.3250  0.3736  0.3727  0.3722  0.3720  0.3728  0.3715  0.3714
 1975 008    69   0.1100  0.1300  0.1500  0.2200  0.2200  0.2200  0.2200  0.2200  0.2200  0.2200  0.2800  0.3000  0.3200  0.3700  0.3700  0.3700  0.3700  0.3700  0.3700  0.3700  0.3300  0.3750  0.4200  0.4200  0.4200  0.4200  0.4200  0.4200  0.4200  0.4200  1.1000  1.1500  1.2000  1.2500  1.2500  1.2500  1.2500  1.2500  1.2500  1.2500  0.2873  0.3029  0.3223  0.3717  0.3726  0.3721  0.3719  0.3727  0.3715  0.3714
 1975 009    70   0.1100  0.1300  0.1500  0.2200  0.2200  0.2200  0.2200  0.2200  0.2200  0.2200  0.2800  0.3000  0.3200  0.3700  0.3700  0.3700  0.3700  0.3700  0.3700  0.3700  0.3300  0.3750  0.4200  0.4200  0.4200  0.4200  0.4200  0.4200  0.4200  0.4200  1.1000  1.1500  1.2000  1.2500  1.2500  1.2500  1.2500  1.2500  1.2500  1.2500  0.2834  0.3028  0.3223  0.3716  0.3726  0.3721  0.3719  0.3727  0.3715  0.3713
 1975 010    71   0.1100  0.1300  0.1500  0.2200  0.2200  0.2200  0.2200  0.2200  0.2200  0.2200  0.2800  0.3000  0.3200  0.3700  0.3700  0.3700  0.3700  0.3700  0.3700  0.3700  0.3300  0.3750  0.4200  0.4200  0.4200  0.4200  0.4200  0.4200  0.4200  0.4200  1.1000  1.1500  1.2000  1.2500  1.2500  1.2500  1.2500  1.2500  1.2500  1.2500  0.2827  0.3019  0.3221  0.3718  0.3722  0.3721  0.3720  0.3717  0.3716  0.3729
 1975 011    72   0.1100  0.1300  0.1500  0.2200  0.2200  0.2200  0.2200  0.2200  0.2200  0.2200  0.2800  0.3000  0.3200  0.3700  0.3700  0.3700  0.3700  0.3700  0.3700  0.3700  0.3300  0.3750  0.4200  0.4200  0.4200  0.4200  0.4200  0.4200  0.4200  0.4200  1.1000  1.1500  1.2000  1.2500  1.2500  1.2500  1.2500  1.2500  1.2500  1.2500  0.2820  0.3016  0.3219  0.3717  0.3720  0.3720  0.3719  0.3716  0.3715  0.3729
 1975 012    73   0.1100  0.1300  0.1500  0.2200  0.2200  0.2200  0.2200  0.2200  0.2200  0.2200  0.2800  0.3000  0.3200  0.3700  0.3700  0.3700  0.3700  0.3700  0.3700  0.3700  0.3300  0.3750  0.4200  0.4200  0.4200  0.4200  0.4200  0.4200  0.4200  0.4200  1.1000  1.1500  1.2000  1.2500  1.2500  1.2500  1.2500  1.2500  1.2500  1.2500  0.3071  0.3157  0.3288  0.3752  0.3736  0.3728  0.3723  0.3723  0.3715  0.3728
 1975 013    74   0.1100  0.1300  0.1500  0.2200  0.2200  0.2200  0.2200  0.2200  0.2200  0.2200  0.2800  0.3000  0.3200  0.3700  0.3700  0.3700  0.3700  0.3700  0.3700  0.3700  0.3300  0.3750  0.4200  0.4200  0.4200  0.4200  0.4200  0.4200  0.4200  0.4200  1.1000  1.1500  1.2000  1.2500  1.2500  1.2500  1.2500  1.2500  1.2500  1.2500  0.2923  0.3073  0.3240  0.3723  0.3716  0.3726  0.3722  0.3722  0.3714  0.3728
 1975 014    75   0.1100  0.1300  0.1500  0.2200  0.2200  0.2200  0.2200  0.2200  0.2200  0.2200  0.2800  0.3000  0.3200  0.3700  0.3700  0.3700  0.3700  0.3700  0.3700  0.3700  0.3300  0.3750  0.4200  0.4200  0.4200  0.4200  0.4200  0.4200  0.4200  0.4200  1.1000  1.1500  1.2000  1.2500  1.2500  1.2500  1.2500  1.2500  1.2500  1.2500  0.3045  0.3084  0.3262  0.3742  0.3728  0.3727  0.3724  0.3715  0.3729  0.3727
 1975 015    76   0.1100  0.1300  0.1500  0.2200  0.2200  0.2200  0.2200  0.2200  0.2200  0.2200  0.2800  0.3000  0.3200  0.3700  0.3700  0.3700  0.3700  0.3700  0.3700  0.3700  0.3300  0.3750  0.4200  0.4200  0.4200  0.4200  0.4200  0.4200  0.4200  0.4200  1.1000  1.1500  1.2000  1.2500  1.2500  1.2500  1.2500  1.2500  1.2500  1.2500  0.3053  0.3175  0.3318  0.3778  0.3752  0.3738  0.3730  0.3724  0.3727  0.3726
 1975 016    77   0.1100  0.1300  0.1500  0.2200  0.2200  0.2200  0.2200  0.2200  0.2200  0.2200  0.2800  0.3000  0.3200  0.3700  0.3700  0.3700  0.3700  0.3700  0.3700  0.3700  0.3300  0.3750  0.4200  0.4200  0.4200  0.4200  0.4200  0.4200  0.4200  0.4200  1.1000  1.1500  1.2000  1.2500  1.2500  1.2500  1.2500  1.2500  1.2500  1.2500  0.3061  0.3236  0.3376  0.3826  0.3788  0.3762  0.3746  0.3718  0.3722  0.3724
 1975 017    78   0.1100  0.1300  0.1500  0.2200  0.2200  0.2200  0.2200  0.2200  0.2200  0.2200  0.2800  0.3000  0.3200  0.3700  0.3700  0.3700  0.3700  0.3700  0.3700  0.3700  0.3300  0.3750  0.4200  0.4200  0.4200  0.4200  0.4200  0.4200  0.4200  0.4200  1.1000  1.1500  1.2000  1.2500  1.2500  1.2500  1.2500  1.2500  1.2500  1.2500  0.3061  0.3268  0.3421  0.3873  0.3829  0.3795  0.3770  0.3720  0.3721  0.3722
 1975 018    79   0.1100  0.1300  0.1500  0.2200  0.2200  0.2200  0.2200  0.2200  0.2200  0.2200  0.2800  0.3000  0.3200  0.3700  0.3700  0.3700  0.3700  0.3700  0.3700  0.3700  0.3300  0.3750  0.4200  0.4200  0.4200  0.4200  0.4200  0.4200  0.4200  0.4200  1.1000  1.1500  1.2000  1.2500  1.2500  1.2500  1.2500  1.2500  1.2500  1.2500  0.3074  0.3374  0.3618  0.3950  0.3935  0.3865  0.3818  0.3730  0.3725  0.3724
 1975 019    80   0.1100  0.1300  0.1500  0.2200  0.2200  0.2200  0.2200  0.2200  0.2200  0.2200  0.2800  0.3000  0.3200  0.3700  0.3700  0.3700  0.3700  0.3700  0.3700  0.3700  0.3300  0.3750  0.4200  0.4200  0.4200  0.4200  0.4200  0.4200  0.4200  0.4200  1.1000  1.1500  1.2000  1.2500  1.2500  1.2500  1.2500  1.2500  1.2500  1.2500  0.3052  0.3364  0.3693  0.3945  0.3946  0.3947  0.3947  0.3772  0.3748  0.3735
 1975 020    81   0.1100  0.1300  0.1500  0.2200  0.2200  0.2200  0.2200  0.2200  0.2200  0.2200  0.2800  0.3000  0.3200  0.3700  0.3700  0.3700  0.3700  0.3700  0.3700  0.3700  0.3300  0.3750  0.4200  0.4200  0.4200  0.4200  0.4200  0.4200  0.4200  0.4200  1.1000  1.1500  1.2000  1.2500  1.2500  1.2500  1.2500  1.2500  1.2500  1.2500  0.3069  0.3372  0.3698  0.3949  0.3949  0.3949  0.3949  0.3943  0.3845  0.3790
 1975 021    82   0.1100  0.1300  0.1500  0.2200  0.2200  0.2200  0.2200  0.2200  0.2200  0.2200  0.2800  0.3000  0.3200  0.3700  0.3700  0.3700  0.3700  0.3700  0.3700  0.3700  0.3300  0.3750  0.4200  0.4200  0.4200  0.4200  0.4200  0.4200  0.4200  0.4200  1.1000  1.1500  1.2000  1.2500  1.2500  1.2500  1.2500  1.2500  1.2500  1.2500  0.3050  0.3364  0.3693  0.3945  0.3946  0.3947  0.3947  0.3917  0.3881  0.3835
 1975 022    83   0.1100  0.1300  0.1500  0.2200  0.2200  0.2200  0.2200  0.2200  0.2200  0.2200  0.2800  0.3000  0.3200  0.3700  0.3700  0.3700  0.3700  0.3700  0.3700  0.3700  0.3300  0.3750  0.4200  0.4200  0.4200  0.4200  0.4200  0.4200  0.4200  0.4200  1.1000  1.1500  1.2000  1.2500  1.2500  1.2500  1.2500  1.2500  1.2500  1.2500  0.3074  0.3345  0.3619  0.3950  0.3950  0.3950  0.3950  0.3876  0.3878  0.3856
 1975 023    84   0.1100  0.1300  0.1500  0.2200  0.2200  0.2200  0.2200  0.2200  0.2200  0.2200  0.2800  0.3000  0.3200  0.3700  0.3700  0.3700  0.3700  0.3700  0.3700  0.3700  0.3300  0.3750  0.4200  0.4200  0.4200  0.4200  0.4200  0.4200  0.4200  0.4200  1.1000  1.1500  1.2000  1.2500  1.2500  1.2500  1.2500  1.2500  1.2500  1.2500  0.3023  0.3214  0.3516  0.3947  0.3947  0.3948  0.3948  0.3840  0.3859  0.3857
 1975 024    85   0.1100  0.1300  0.1500  0.2200  0.2200  0.2200  0.2200  0.2200  0.2200  0.2200  0.2800  0.3000  0.3200  0.3700  0.3700  0.3700  0.3700  0.3700  0.3700  0.3700  0.3300  0.3750  0.4200  0.4200  0.4200  0.4200  0.4200  0.4200  0.4200  0.4200  1.1000  1.1500  1.2000  1.2500  1.2500  1.2500  1.2500  1.2500  1.2500  1.2500  0.3051  0.3364  0.3568  0.3945  0.3946  0.3947  0.3947  0.3829  0.3843  0.3849
 1975 025    86   0.1100  0.1300  0.1500  0.2200  0.2200  0.2200  0.2200  0.2200  0.2200  0.2200  0.2800  0.3000  0.3200  0.3700  0.3700  0.3700  0.3700  0.3700  0.3700  0.3700  0.3300  0.3750  0.4200  0.4200  0.4200  0.4200  0.4200  0.4200  0.4200  0.4200  1.1000  1.1500  1.2000  1.2500  1.2500  1.2500  1.2500  1.2500  1.2500  1.2500  0.3034  0.3227  0.3496  0.3947  0.3948  0.3948  0.3948  0.3810  0.3826  0.3837
 1975 026    87   0.1100  0.1300  0.1500  0.2200  0.2200  0.2200  0.2200  0.2200  0.2200  0.2200  0.2800  0.3000  0.3200  0.3700  0.3700  0.3700  0.3700  0.3700  0.3700  0.3700  0.3300  0.3750  0.4200  0.4200  0.4200  0.4200  0.4200  0.4200  0.4200  0.4200  1.1000  1.1500  1.2000  1.2500  1.2500  1.2500  1.2500  1.2500  1.2500  1.2500  0.3047  0.3362  0.3692  0.3944  0.3945  0.3946  0.3947  0.3889  0.3857  0.3846
 1975 027    88   0.1100  0.1300  0.1500  0.2200  0.2200  0.2200  0.2200  0.2200  0.2200  0.2200  0.2800  0.3000  0.3200  0.3700  0.3700  0.3700  0.3700  0.3700  0.3700  0.3700  0.3300  0.3750  0.4200  0.4200  0.4200  0.4200  0.4200  0.4200  0.4200  0.4200  1.1000  1.1500  1.2000  1.2500  1.2500  1.2500  1.2500  1.2500  1.2500  1.2500  0.3072  0.3374  0.3699  0.3949  0.3949  0.3950  0.3950  0.3880  0.3868  0.3857
 1975 028    89   0.1100  0.1300  0.1500  0.2200  0.2200  0.2200  0.2200  0.2200  0.2200  0.2200  0.2800  0.3000  0.3200  0.3700  0.3700  0.3700  0.3700  0.3700  0.3700  0.3700  0.3300  0.3750  0.4200  0.4200  0.4200  0.4200  0.4200  0.4200  0.4200  0.4200  1.1000  1.1500  1.2000  1.2500  1.2500  1.2500  1.2500  1.2500  1.2500  1.2500  0.3073  0.3374  0.3699  0.3950  0.3950  0.3950  0.3950  0.3938  0.3903  0.3880
 1975 029    90   0.1100  0.1300  0.1500  0.2200  0.2200  0.2200  0.2200  0.2200  0.2200  0.2200  0.2800  0.3000  0.3200  0.3700  0.3700  0.3700  0.3700  0.3700  0.3700  0.3700  0.3300  0.3750  0.4200  0.4200  0.4200  0.4200  0.4200  0.4200  0.4200  0.4200  1.1000  1.1500  1.2000  1.2500  1.2500  1.2500  1.2500  1.2500  1.2500  1.2500  0.3070  0.3299  0.3599  0.3949  0.3949  0.3949  0.3949  0.3885  0.3894  0.3887
 1975 030    91   0.1100  0.1300  0.1500  0.2200  0.2200  0.2200  0.2200  0.2200  0.2200  0.2200  0.2800  0.3000  0.3200  0.3700  0.3700  0.3700  0.3700  0.3700  0.3700  0.3700  0.3300  0.3750  0.4200  0.4200  0.4200  0.4200  0.4200  0.4200  0.4200  0.4200  1.1000  1.1500  1.2000  1.2500  1.2500  1.2500  1.2500  1.2500  1.2500  1.2500  0.3057  0.3200  0.3498  0.3946  0.3947  0.3947  0.3948  0.3841  0.3867  0.3876
 1975 031    92   0.1100  0.1300  0.1500  0.2200  0.2200  0.2200  0.2200  0.2200  0.2200  0.2200  0.2800  0.3000  0.3200  0.3700  0.3700  0.3700  0.3700  0.3700  0.3700  0.3700  0.3300  0.3750  0.4200  0.4200  0.4200  0.4200  0.4200  0.4200  0.4200  0.4200  1.1000  1.1500  1.2000  1.2500  1.2500  1.2500  1.2500  1.2500  1.2500  1.2500  0.3063  0.3265  0.3481  0.3947  0.3948  0.3948  0.3948  0.3815  0.3840  0.3858
 1975 032    93   0.1100  0.1300  0.1500  0.2200  0.2200  0.2200  0.2200  0.2200  0.2200  0.2200  0.2800  0.3000  0.3200  0.3700  0.3700  0.3700  0.3700  0.3700  0.3700  0.3700  0.3300  0.3750  0.4200  0.4200  0.4200  0.4200  0.4200  0.4200  0.4200  0.4200  1.1000  1.1500  1.2000  1.2500  1.2500  1.2500  1.2500  1.2500  1.2500  1.2500  0.2938  0.3156  0.3417  0.3931  0.3938  0.3942  0.3944  0.3797  0.3818  0.3838
 1975 033    94   0.1100  0.1300  0.1500  0.2200  0.2200  0.2200  0.2200  0.2200  0.2200  0.2200  0.2800  0.3000  0.3200  0.3700  0.3700  0.3700  0.3700  0.3700  0.3700  0.3700  0.3300  0.3750  0.4200  0.4200  0.4200  0.4200  0.4200  0.4200  0.4200  0.4200  1.1000  1.1500  1.2000  1.2500  1.2500  1.2500  1.2500  1.2500  1.2500  1.2500  0.2888  0.3094  0.3355  0.3892  0.3914  0.3928  0.3935  0.3787  0.3802  0.3820
 1975 034    95   0.1100  0.1300  0.1500  0.2200  0.2200  0.2200  0.2200  0.2200  0.2200  0.2200  0.2800  0.3000  0.3200  0.3700  0.3700  0.3700  0.3700  0.3700  0.3700  0.3700  0.3300  0.3750  0.4200  0.4200  0.4200  0.4200  0.4200  0.4200  0.4200  0.4200  1.1000  1.1500  1.2000  1.2500  1.2500  1.2500  1.2500  1.2500  1.2500  1.2500  0.2836  0.3043  0.3275  0.3794  0.3806  0.3813  0.3817  0.3743  0.3751  0.3759
 1975 035    96   0.1100  0.1300  0.1500  0.2200  0.2200  0.2200  0.2200  0.2200  0.2200  0.2200  0.2800  0.3000  0.3200  0.3700  0.3700  0.3700  0.3700  0.3700  0.3700  0.3700  0.3300  0.3750  0.4200  0.4200  0.4200  0.4200  0.4200  0.4200  0.4200  0.4200  1.1000  1.1500  1.2000  1.2500  1.2500  1.2500  1.2500  1.2500  1.2500  1.2500  0.2814  0.3020  0.3236  0.3746  0.3752  0.3756  0.3758  0.3721  0.3725  0.3729
 1975 036    97   0.1100  0.1300  0.1500  0.2200  0.2200  0.2200  0.2200  0.2200  0.2200  0.2200  0.2800  0.3000  0.3200  0.3700  0.3700  0.3700  0.3700  0.3700  0.3700  0.3700  0.3300  0.3750  0.4200  0.4200  0.4200  0.4200  0.4200  0.4200  0.4200  0.4200  1.1000  1.1500  1.2000  1.2500  1.2500  1.2500  1.2500  1.2500  1.2500  1.2500  0.2801  0.3014  0.3214  0.3720  0.3723  0.3726  0.3727  0.3720  0.3724  0.3729
 1975 037    98   0.1100  0.1300  0.1500  0.2200  0.2200  0.2200  0.2200  0.2200  0.2200  0.2200  0.2800  0.3000  0.3200  0.3700  0.3700  0.3700  0.3700  0.3700  0.3700  0.3700  0.3300  0.3750  0.4200  0.4200  0.4200  0.4200  0.4200  0.4200  0.4200  0.4200  1.1000  1.1500  1.2000  1.2500  1.2500  1.2500  1.2500  1.2500  1.2500  1.2500  0.2788  0.3008  0.3211  0.3717  0.3721  0.3724  0.3726  0.3719  0.3723  0.3728
 1975 038    99   0.1100  0.1300  0.1500  0.2200  0.2200  0.2200  0.2200  0.2200  0.2200  0.2200  0.2800  0.3000  0.3200  0.3700  0.3700  0.3700  0.3700  0.3700  0.3700  0.3700  0.3300  0.3750  0.4200  0.4200  0.4200  0.4200  0.4200  0.4200  0.4200  0.4200  1.1000  1.1500  1.2000  1.2500  1.2500  1.2500  1.2500  1.2500  1.2500  1.2500  0.2762  0.2996  0.3203  0.3711  0.3716  0.3720  0.3722  0.3716  0.3721  0.3726
 1975 039   100   0.1100  0.1300  0.1500  0.2200  0.2200  0.2200  0.2200  0.2200  0.2200  0.2200  0.2800  0.3000  0.3200  0.3700  0.3700  0.3700  0.3700  0.3700  0.3700  0.3700  0.3300  0.3750  0.4200  0.4200  0.4200  0.4200  0.4200  0.4200  0.4200  0.4200  1.1000  1.1500  1.2000  1.2500  1.2500  1.2500  1.2500  1.2500  1.2500  1.2500  0.2741  0.2986  0.3196  0.3706  0.3712  0.3717  0.3719  0.3714  0.3720  0.3725
 1975 040   101   0.1100  0.1300  0.1500  0.2200  0.2200  0.2200  0.2200  0.2200  0.2200  0.2200  0.2800  0.3000  0.3200  0.3700  0.3700  0.3700  0.3700  0.3700  0.3700  0.3700  0.3300  0.3750  0.4200  0.4200  0.4200  0.4200  0.4200  0.4200  0.4200  0.4200  1.1000  1.1500  1.2000  1.2500  1.2500  1.2500  1.2500  1.2500  1.2500  1.2500  0.2729  0.2971  0.3187  0.3698  0.3706  0.3712  0.3715  0.3711  0.3717  0.3723
 1975 041   102   0.1100  0.1300  0.1500  0.2200  0.2200  0.2200  0.2200  0.2200  0.2200  0.2200  0.2800  0.3000  0.3200  0.3700  0.3700  0.3700  0.3700  0.3700  0.3700  0.3700  0.3300  0.3750  0.4200  0.4200  0.4200  0.4200  0.4200  0.4200  0.4200  0.4200  1.1000  1.1500  1.2000  1.2500  1.2500  1.2500  1.2500  1.2500  1.2500  1.2500  0.2960  0.3016  0.3204  0.3696  0.3704  0.3710  0.3713  0.3710  0.3716  0.3722
 1975 042   103   0.1100  0.1300  0.1500  0.2200  0.2200  0.2200  0.2200  0.2200  0.2200  0.2200  0.2800  0.3000  0.3200  0.3700  0.3700  0.3700  0.3700  0.3700  0.3700  0.3700  0.3300  0.3750  0.4200  0.4200  0.4200  0.4200  0.4200  0.4200  0.4200  0.4200  1.1000  1.1500  1.2000  1.2500  1.2500  1.2500  1.2500  1.2500  1.2500  1.2500  0.3068  0.3201  0.3302  0.3748  0.3726  0.3718  0.3715  0.3715  0.3716  0.3722
 1975 043   104   0.1100  0.1300  0.1500  0.2200  0.2200  0.2200  0.2200  0.2200  0.2200  0.2200  0.2800  0.3000  0.3200  0.3700  0.3700  0.3700  0.3700  0.3700  0.3700  0.3700  0.3300  0.3750  0.4200  0.4200  0.4200  0.4200  0.4200  0.4200  0.4200  0.4200  1.1000  1.1500  1.2000  1.2500  1.2500  1.2500  1.2500  1.2500  1.2500  1.2500  0.3062  0.3173  0.3337  0.3792  0.3758  0.3737  0.3725  0.3723  0.3715  0.3721
 1975 044   105   0.1100  0.1300  0.1500  0.2200  0.2200  0.2200  0.2200  0.2200  0.2200  0.2200  0.2800  0.3000  0.3200  0.3700  0.3700  0.3700  0.3700  0.3700  0.3700  0.3700  0.3300  0.3750  0.4200  0.4200  0.4200  0.4200  0.4200  0.4200  0.4200  0.4200  1.1000  1.1500  1.2000  1.2500  1.2500  1.2500  1.2500  1.2500  1.2500  1.2500  0.3034  0.3130  0.3332  0.3810  0.3783  0.3759  0.3741  0.3717  0.3716  0.3718
 1975 045   106   0.1100  0.1300  0.1500  0.2200  0.2200  0.2200  0.2200  0.2200  0.2200  0.2200  0.2800  0.3000  0.3200  0.3700  0.3700  0.3700  0.3700  0.3700  0.3700  0.3700  0.3300  0.3750  0.4200  0.4200  0.4200  0.4200  0.4200  0.4200  0.4200  0.4200  1.1000  1.1500  1.2000  1.2500  1.2500  1.2500  1.2500  1.2500  1.2500  1.2500  0.3058  0.3367  0.3695  0.3946  0.3947  0.3928  0.3834  0.3730  0.3722  0.3720
 1975 046   107   0.1100  0.1300  0.1500  0.2200  0.2200  0.2200  0.2200  0.2200  0.2200  0.2200  0.2800  0.3000  0.3200  0.3700  0.3700  0.3700  0.3700  0.3700  0.3700  0.3700  0.3300  0.3750  0.4200  0.4200  0.4200  0.4200  0.4200  0.4200  0.4200  0.4200  1.1000  1.1500  1.2000  1.2500  1.2500  1.2500  1.2500  1.2500  1.2500  1.2500  0.2947  0.3212  0.3553  0.3949  0.3949  0.3949  0.3929  0.3753  0.3737  0.3728
 1975 047   108   0.1100  0.1300  0.1500  0.2200  0.2200  0.2200  0.2200  0.2200  0.2200  0.2200  0.2800  0.3000  0.3200  0.3700  0.3700  0.3700  0.3700  0.3700  0.3700  0.3700  0.3300  0.3750  0.4200  0.4200  0.4200  0.4200  0.4200  0.4200  0.4200  0.4200  1.1000  1.1500  1.2000  1.2500  1.2500  1.2500  1.2500  1.2500  1.2500  1.2500  0.2943  0.3132  0.3441  0.3944  0.3945  0.3946  0.3937  0.3765  0.3751  0.3739
 1975 048   109   0.1100  0.1300  0.1500  0.2200  0.2200  0.2200  0.2200  0.2200  0.2200  0.2200  0.2800  0.3000  0.3200  0.3700  0.3700  0.3700  0.3700  0.3700  0.3700  0.3700  0.3300  0.3750  0.4200  0.4200  0.4200  0.4200  0.4200  0.4200  0.4200  0.4200  1.1000  1.1500  1.2000  1.2500  1.2500  1.2500  1.2500  1.2500  1.2500  1.2500  0.3068  0.3140  0.3390  0.3916  0.3930  0.3938  0.3937  0.3771  0.3761  0.3750
 1975 049   110   0.1100  0.1300  0.1500  0.2200  0.2200  0.2200  0.2200  0.2200  0.2200  0.2200  0.2800  0.3000  0.3200  0.3700  0.3700  0.3700  0.3700  0.3700  0.3700  0.3700  0.3300  0.3750  0.4200  0.4200  0.4200  0.4200  0.4200  0.4200  0.4200  0.4200  1.1000  1.1500  1.2000  1.2500  1.2500  1.2500  1.2500  1.2500  1.2500  1.2500  0.3060  0.3368  0.3557  0.3947  0.3947  0.3948  0.3948  0.3781  0.3771  0.3760
 1975 050   111   0.1100  0.1300  0.1500  0.2200  0.2200  0.2200  0.2200  0.2200  0.2200  0.2200  0.2800  0.3000  0.3200  0.3700  0.3700  0.3700  0.3700  0.3700  0.3700  0.3700  0.3300  0.3750  0.4200  0.4200  0.4200  0.4200  0.4200  0.4200  0.4200  0.4200  1.1000  1.1500  1.2000  1.2500  1.2500  1.2500  1.2500  1.2500  1.2500  1.2500  0.2915  0.3197  0.3474  0.3940  0.3942  0.3944  0.3945  0.3783  0.3776  0.3767
 1975 051   112   0.1100  0.1300  0.1500  0.2200  0.2200  0.2200  0.2200  0.2200  0.2200  0.2200  0.2800  0.3000  0.3200  0.3700  0.3700  0.3700  0.3700  0.3700  0.3700  0.3700  0.3300  0.3750  0.4200  0.4200  0.4200  0.4200  0.4200  0.4200  0.4200  0.4200  1.1000  1.1500  1.2000  1.2500  1.2500  1.2500  1.2500  1.2500  1.2500  1.2500  0.2816  0.3079  0.3324  0.3810  0.3813  0.3815  0.3816  0.3738  0.3735  0.3731
 1975 052   113   0.1100  0.1300  0.1500  0.2200  0.2200  0.2200  0.2200  0.2200  0.2200  0.2200  0.2800  0.3000  0.3200  0.3700  0.3700  0.3700  0.3700  0.3700  0.3700  0.3700  0.3300  0.3750  0.4200  0.4200  0.4200  0.4200  0.4200  0.4200  0.4200  0.4200  1.1000  1.1500  1.2000  1.2500  1.2500  1.2500  1.2500  1.2500  1.2500  1.2500  0.2776  0.3021  0.3250  0.3745  0.3748  0.3751  0.3753  0.3715  0.3715  0.3713
 1975 053   114   0.1100  0.1300  0.1500  0.2200  0.2200  0.2200  0.2200  0.2200  0.2200  0.2200  0.2800  0.3000  0.3200  0.3700  0.3700  0.3700  0.3700  0.3700  0.3700  0.3700  0.3300  0.3750  0.4200  0.4200  0.4200  0.4200  0.4200  0.4200  0.4200  0.4200  1.1000  1.1500  1.2000  1.2500  1.2500  1.2500  1.2500  1.2500  1.2500  1.2500  0.2758  0.3003  0.3213  0.3725  0.3734  0.3740  0.3744  0.3712  0.3712  0.3726
 1975 054   115   0.1100  0.1300  0.1500  0.2200  0.2200  0.2200  0.2200  0.2200  0.2200  0.2200  0.2800  0.3000  0.3200  0.3700  0.3700  0.3700  0.3700  0.3700  0.3700  0.3700  0.3300  0.3750  0.4200  0.4200  0.4200  0.4200  0.4200  0.4200  0.4200  0.4200  1.1000  1.1500  1.2000  1.2500  1.2500  1.2500  1.2500  1.2500  1.2500  1.2500  0.2741  0.2985  0.3201  0.3716  0.3709  0.3722  0.3731  0.3721  0.3710  0.3723
 1975 055   116   0.1100  0.1300  0.1500  0.2200  0.2200  0.2200  0.2200  0.2200  0.2200  0.2200  0.2800  0.3000  0.3200  0.3700  0.3700  0.3700  0.3700  0.3700  0.3700  0.3700  0.3300  0.3750  0.4200  0.4200  0.4200  0.4200  0.4200  0.4200  0.4200  0.4200  1.1000  1.1500  1.2000  1.2500  1.2500  1.2500  1.2500  1.2500  1.2500  1.2500  0.2711  0.2962  0.3185  0.3704  0.3699  0.3714  0.3708  0.3721  0.3706  0.3720
 1975 056   117   0.1100  0.1300  0.1500  0.2200  0.2200  0.2200  0.2200  0.2200  0.2200  0.2200  0.2800  0.3000  0.3200  0.3700  0.3700  0.3700  0.3700  0.3700  0.3700  0.3700  0.3300  0.3750  0.4200  0.4200  0.4200  0.4200  0.4200  0.4200  0.4200  0.4200  1.1000  1.1500  1.2000  1.2500  1.2500  1.2500  1.2500  1.2500  1.2500  1.2500  0.2701  0.2957  0.3182  0.3701  0.3697  0.3712  0.3707  0.3720  0.3705  0.3720
 1975 057   118   0.1100  0.1300  0.1500  0.2200  0.2200  0.2200  0.2200  0.2200  0.2200  0.2200  0.2800  0.3000  0.3200  0.3700  0.3700  0.3700  0.3700  0.3700  0.3700  0.3700  0.3300  0.3750  0.4200  0.4200  0.4200  0.4200  0.4200  0.4200  0.4200  0.4200  1.1000  1.1500  1.2000  1.2500  1.2500  1.2500  1.2500  1.2500  1.2500  1.2500  0.2677  0.2936  0.3168  0.3690  0.3687  0.3705  0.3700  0.3715  0.3702  0.3717
 1975 058   119   0.1100  0.1300  0.1500  0.2200  0.2200  0.2200  0.2200  0.2200  0.2200  0.2200  0.2800  0.3000  0.3200  0.3700  0.3700  0.3700  0.3700  0.3700  0.3700  0.3700  0.3300  0.3750  0.4200  0.4200  0.4200  0.4200  0.4200  0.4200  0.4200  0.4200  1.1000  1.1500  1.2000  1.2500  1.2500  1.2500  1.2500  1.2500  1.2500  1.2500  0.2617  0.2908  0.3149  0.3674  0.3674  0.3695  0.3691  0.3709  0.3697  0.3713
 1975 059   120   0.1100  0.1300  0.1500  0.2200  0.2200  0.2200  0.2200  0.2200  0.2200  0.2200  0.2800  0.3000  0.3200  0.3700  0.3700  0.3700  0.3700  0.3700  0.3700  0.3700  0.3300  0.3750  0.4200  0.4200  0.4200  0.4200  0.4200  0.4200  0.4200  0.4200  1.1000  1.1500  1.2000  1.2500  1.2500  1.2500  1.2500  1.2500  1.2500  1.2500  0.2568  0.2884  0.3133  0.3661  0.3663  0.3686  0.3683  0.3704  0.3693  0.3710
 1975 060   121   0.1100  0.1300  0.1500  0.2200  0.2200  0.2200  0.2200  0.2200  0.2200  0.2200  0.2800  0.3000  0.3200  0.3700  0.3700  0.3700  0.3700  0.3700  0.3700  0.3700  0.3300  0.3750  0.4200  0.4200  0.4200  0.4200  0.4200  0.4200  0.4200  0.4200  1.1000  1.1500  1.2000  1.2500  1.2500  1.2500  1.2500  1.2500  1.2500  1.2500  0.2542  0.2871  0.3124  0.3654  0.3658  0.3681  0.3679  0.3701  0.3691  0.3708
 1975 061   122   0.1100  0.1300  0.1500  0.2200  0.2200  0.2200  0.2200  0.2200  0.2200  0.2200  0.2800  0.3000  0.3200  0.3700  0.3700  0.3700  0.3700  0.3700  0.3700  0.3700  0.3300  0.3750  0.4200  0.4200  0.4200  0.4200  0.4200  0.4200  0.4200  0.4200  1.1000  1.1500  1.2000  1.2500  1.2500  1.2500  1.2500  1.2500  1.2500  1.2500  0.3030  0.2964  0.3116  0.3648  0.3652  0.3677  0.3675  0.3699  0.3689  0.3706
 1975 062   123   0.1100  0.1300  0.1500  0.2200  0.2200  0.2200  0.2200  0.2200  0.2200  0.2200  0.2800  0.3000  0.3200  0.3700  0.3700  0.3700  0.3700  0.3700  0.3700  0.3700  0.3300  0.3750  0.4200  0.4200  0.4200  0.4200  0.4200  0.4200  0.4200  0.4200  1.1000  1.1500  1.2000  1.2500  1.2500  1.2500  1.2500  1.2500  1.2500  1.2500  0.2920  0.3012  0.3108  0.3642  0.3647  0.3673  0.3671  0.3696  0.3687  0.3705
 1975 063   124   0.1100  0.1300  0.1500  0.2200  0.2200  0.2200  0.2200  0.2200  0.2200  0.2200  0.2800  0.3000  0.3200  0.3700  0.3700  0.3700  0.3700  0.3700  0.3700  0.3700  0.3300  0.3750  0.4200  0.4200  0.4200  0.4200  0.4200  0.4200  0.4200  0.4200  1.1000  1.1500  1.2000  1.2500  1.2500  1.2500  1.2500  1.2500  1.2500  1.2500  0.3036  0.3289  0.3296  0.3715  0.3664  0.3667  0.3666  0.3693  0.3685  0.3702
 1975 064   125   0.1100  0.1300  0.1500  0.2200  0.2200  0.2200  0.2200  0.2200  0.2200  0.2200  0.2800  0.3000  0.3200  0.3700  0.3700  0.3700  0.3700  0.3700  0.3700  0.3700  0.3300  0.3750  0.4200  0.4200  0.4200  0.4200  0.4200  0.4200  0.4200  0.4200  1.1000  1.1500  1.2000  1.2500  1.2500  1.2500  1.2500  1.2500  1.2500  1.2500  0.2928  0.3167  0.3330  0.3772  0.3717  0.3684  0.3664  0.3692  0.3684  0.3702
 1975 065   126   0.1100  0.1300  0.1500  0.2200  0.2200  0.2200  0.2200  0.2200  0.2200  0.2200  0.2800  0.3000  0.3200  0.3700  0.3700  0.3700  0.3700  0.3700  0.3700  0.3700  0.3300  0.3750  0.4200  0.4200  0.4200  0.4200  0.4200  0.4200  0.4200  0.4200  1.1000  1.1500  1.2000  1.2500  1.2500  1.2500  1.2500  1.2500  1.2500  1.2500  0.3058  0.3303  0.3416  0.3842  0.3778  0.3730  0.3694  0.3690  0.3683  0.3701
 1975 066   127   0.1100  0.1300  0.1500  0.2200  0.2200  0.2200  0.2200  0.2200  0.2200  0.2200  0.2800  0.3000  0.3200  0.3700  0.3700  0.3700  0.3700  0.3700  0.3700  0.3700  0.3300  0.3750  0.4200  0.4200  0.4200  0.4200  0.4200  0.4200  0.4200  0.4200  1.1000  1.1500  1.2000  1.2500  1.2500  1.2500  1.2500  1.2500  1.2500  1.2500  0.3052  0.3364  0.3645  0.3944  0.3906  0.3817  0.3754  0.3707  0.3681  0.3699
 1975 067   128   0.1100  0.1300  0.1500  0.2200  0.2200  0.2200  0.2200  0.2200  0.2200  0.2200  0.2800  0.3000  0.3200  0.3700  0.3700  0.3700  0.3700  0.3700  0.3700  0.3700  0.3300  0.3750  0.4200  0.4200  0.4200  0.4200  0.4200  0.4200  0.4200  0.4200  1.1000  1.1500  1.2000  1.2500  1.2500  1.2500  1.2500  1.2500  1.2500  1.2500  0.3055  0.3365  0.3693  0.3945  0.3946  0.3947  0.3947  0.3848  0.3764  0.3731
 1975 068   129   0.1100  0.1300  0.1500  0.2200  0.2200  0.2200  0.2200  0.2200  0.2200  0.2200  0.2800  0.3000  0.3200  0.3700  0.3700  0.3700  0.3700  0.3700  0.3700  0.3700  0.3300  0.3750  0.4200  0.4200  0.4200  0.4200  0.4200  0.4200  0.4200  0.4200  1.1000  1.1500  1.2000  1.2500  1.2500  1.2500  1.2500  1.2500  1.2500  1.2500  0.3055  0.3230  0.3560  0.3946  0.3946  0.3947  0.3947  0.3831  0.3797  0.3764
 1975 069   130   0.1100  0.1300  0.1500  0.2200  0.2200  0.2200  0.2200  0.2200  0.2200  0.2200  0.2800  0.3000  0.3200  0.3700  0.3700  0.3700  0.3700  0.3700  0.3700  0.3700  0.3300  0.3750  0.4200  0.4200  0.4200  0.4200  0.4200  0.4200  0.4200  0.4200  1.1000  1.1500  1.2000  1.2500  1.2500  1.2500  1.2500  1.2500  1.2500  1.2500  0.2941  0.3141  0.3450  0.3947  0.3946  0.3946  0.3946  0.3806  0.3801  0.3782
 1975 070   131   0.1100  0.1300  0.1500  0.2200  0.2200  0.2200  0.2200  0.2200  0.2200  0.2200  0.2800  0.3000  0.3200  0.3700  0.3700  0.3700  0.3700  0.3700  0.3700  0.3700  0.3300  0.3750  0.4200  0.4200  0.4200  0.4200  0.4200  0.4200  0.4200  0.4200  1.1000  1.1500  1.2000  1.2500  1.2500  1.2500  1.2500  1.2500  1.2500  1.2500  0.3058  0.3367  0.3549  0.3946  0.3946  0.3947  0.3947  0.3808  0.3804  0.3793
 1975 071   132   0.1100  0.1300  0.1500  0.2200  0.2200  0.2200  0.2200  0.2200  0.2200  0.2200  0.2800  0.3000  0.3200  0.3700  0.3700  0.3700  0.3700  0.3700  0.3700  0.3700  0.3300  0.3750  0.4200  0.4200  0.4200  0.4200  0.4200  0.4200  0.4200  0.4200  1.1000  1.1500  1.2000  1.2500  1.2500  1.2500  1.2500  1.2500  1.2500  1.2500  0.3072  0.3374  0.3570  0.3949  0.3949  0.3950  0.3950  0.3813  0.3809  0.3801
 1975 072   133   0.1100  0.1300  0.1500  0.2200  0.2200  0.2200  0.2200  0.2200  0.2200  0.2200  0.2800  0.3000  0.3200  0.3700  0.3700  0.3700  0.3700  0.3700  0.3700  0.3700  0.3300  0.3750  0.4200  0.4200  0.4200  0.4200  0.4200  0.4200  0.4200  0.4200  1.1000  1.1500  1.2000  1.2500  1.2500  1.2500  1.2500  1.2500  1.2500  1.2500  0.3072  0.3373  0.3699  0.3949  0.3949  0.3949  0.3949  0.3850  0.3829  0.3815
 1975 073   134   0.1100  0.1300  0.1500  0.2200  0.2200  0.2200  0.2200  0.2200  0.2200  0.2200  0.2800  0.3000  0.3200  0.3700  0.3700  0.3700  0.3700  0.3700  0.3700  0.3700  0.3300  0.3750  0.4200  0.4200  0.4200  0.4200  0.4200  0.4200  0.4200  0.4200  1.1000  1.1500  1.2000  1.2500  1.2500  1.2500  1.2500  1.2500  1.2500  1.2500  0.3041  0.3231  0.3563  0.3945  0.3946  0.3947  0.3947  0.3835  0.3832  0.3823
 1975 074   135   0.1100  0.1300  0.1500  0.2200  0.2200  0.2200  0.2200  0.2200  0.2200  0.2200  0.2800  0.3000  0.3200  0.3700  0.3700  0.3700  0.3700  0.3700  0.3700  0.3700  0.3300  0.3750  0.4200  0.4200  0.4200  0.4200  0.4200  0.4200  0.4200  0.4200  1.1000  1.1500  1.2000  1.2500  1.2500  1.2500  1.2500  1.2500  1.2500  1.2500  0.3062  0.3166  0.3463  0.3947  0.3947  0.3948  0.3948  0.3808  0.3820  0.3821
 1975 075   136   0.1100  0.1300  0.1500  0.2200  0.2200  0.2200  0.2200  0.2200  0.2200  0.2200  0.2800  0.3000  0.3200  0.3700  0.3700  0.3700  0.3700  0.3700  0.3700  0.3700  0.3300  0.3750  0.4200  0.4200  0.4200  0.4200  0.4200  0.4200  0.4200  0.4200  1.1000  1.1500  1.2000  1.2500  1.2500  1.2500  1.2500  1.2500  1.2500  1.2500  0.2922  0.3096  0.3375  0.3907  0.3923  0.3932  0.3937  0.3791  0.3804  0.3811
 1975 076   137   0.1100  0.1300  0.1500  0.2200  0.2200  0.2200  0.2200  0.2200  0.2200  0.2200  0.2800  0.3000  0.3200  0.3700  0.3700  0.3700  0.3700  0.3700  0.3700  0.3700  0.3300  0.3750  0.4200  0.4200  0.4200  0.4200  0.4200  0.4200  0.4200  0.4200  1.1000  1.1500  1.2000  1.2500  1.2500  1.2500  1.2500  1.2500  1.2500  1.2500  0.2808  0.3023  0.3270  0.3789  0.3799  0.3807  0.3810  0.3740  0.3748  0.3753
 1975 077   138   0.1100  0.1300  0.1500  0.2200  0.2200  0.2200  0.2200  0.2200  0.2200  0.2200  0.2800  0.3000  0.3200  0.3700  0.3700  0.3700  0.3700  0.3700  0.3700  0.3700  0.3300  0.3750  0.4200  0.4200  0.4200  0.4200  0.4200  0.4200  0.4200  0.4200  1.1000  1.1500  1.2000  1.2500  1.2500  1.2500  1.2500  1.2500  1.2500  1.2500  0.2832  0.3002  0.3230  0.3754  0.3771  0.3785  0.3793  0.3731  0.3739  0.3744
 1975 078   139   0.1100  0.1300  0.1500  0.2200  0.2200  0.2200  0.2200  0.2200  0.2200  0.2200  0.2800  0.3000  0.3200  0.3700  0.3700  0.3700  0.3700  0.3700  0.3700  0.3700  0.3300  0.3750  0.4200  0.4200  0.4200  0.4200  0.4200  0.4200  0.4200  0.4200  1.1000  1.1500  1.2000  1.2500  1.2500  1.2500  1.2500  1.2500  1.2500  1.2500  0.2831  0.3014  0.3212  0.3732  0.3751  0.3767  0.3780  0.3728  0.3733  0.3738
 1975 079   140   0.1100  0.1300  0.1500  0.2200  0.2200  0.2200  0.2200  0.2200  0.2200  0.2200  0.2800  0.3000  0.3200  0.3700  0.3700  0.3700  0.3700  0.3700  0.3700  0.3700  0.3300  0.3750  0.4200  0.4200  0.4200  0.4200  0.4200  0.4200  0.4200  0.4200  1.1000  1.1500  1.2000  1.2500  1.2500  1.2500  1.2500  1.2500  1.2500  1.2500  0.2836  0.3028  0.3211  0.3715  0.3733  0.3750  0.3764  0.3725  0.3729  0.3734
 1975 080   141   0.1100  0.1300  0.1500  0.2200  0.2200  0.2200  0.2200  0.2200  0.2200  0.2200  0.2800  0.3000  0.3200  0.3700  0.3700  0.3700  0.3700  0.3700  0.3700  0.3700  0.3300  0.3750  0.4200  0.4200  0.4200  0.4200  0.4200  0.4200  0.4200  0.4200  1.1000  1.1500  1.2000  1.2500  1.2500  1.2500  1.2500  1.2500  1.2500  1.2500  0.3056  0.3366  0.3446  0.3829  0.3779  0.3763  0.3762  0.3721  0.3725  0.3729
 1975 081   142   0.1100  0.1300  0.1500  0.2200  0.2200  0.2200  0.2200  0.2200  0.2200  0.2200  0.2800  0.3000  0.3200  0.3700  0.3700  0.3700  0.3700  0.3700  0.3700  0.3700  0.3300  0.3750  0.4200  0.4200  0.4200  0.4200  0.4200  0.4200  0.4200  0.4200  1.1000  1.1500  1.2000  1.2500  1.2500  1.2500  1.2500  1.2500  1.2500  1.2500  0.2997  0.3214  0.3427  0.3875  0.3824  0.3792  0.3775  0.3721  0.3722  0.3725
 1975 082   143   0.1100  0.1300  0.1500  0.2200  0.2200  0.2200  0.2200  0.2200  0.2200  0.2200  0.2800  0.3000  0.3200  0.3700  0.3700  0.3700  0.3700  0.3700  0.3700  0.3700  0.3300  0.3750  0.4200  0.4200  0.4200  0.4200  0.4200  0.4200  0.4200  0.4200  1.1000  1.1500  1.2000  1.2500  1.2500  1.2500  1.2500  1.2500  1.2500  1.2500  0.2875  0.3110  0.3365  0.3866  0.3841  0.3814  0.3791  0.3723  0.3722  0.3722
 1975 083   144   0.1100  0.1300  0.1500  0.2200  0.2200  0.2200  0.2200  0.2200  0.2200  0.2200  0.2800  0.3000  0.3200  0.3700  0.3700  0.3700  0.3700  0.3700  0.3700  0.3700  0.3300  0.3750  0.4200  0.4200  0.4200  0.4200  0.4200  0.4200  0.4200  0.4200  1.1000  1.1500  1.2000  1.2500  1.2500  1.2500  1.2500  1.2500  1.2500  1.2500  0.2788  0.3031  0.3265  0.3769  0.3759  0.3748  0.3737  0.3718  0.3718  0.3719
 1975 084   145   0.1100  0.1300  0.1500  0.2200  0.2200  0.2200  0.2200  0.2200  0.2200  0.2200  0.2800  0.3000  0.3200  0.3700  0.3700  0.3700  0.3700  0.3700  0.3700  0.3700  0.3300  0.3750  0.4200  0.4200  0.4200  0.4200  0.4200  0.4200  0.4200  0.4200  1.1000  1.1500  1.2000  1.2500  1.2500  1.2500  1.2500  1.2500  1.2500  1.2500  0.2733  0.2989  0.3214  0.3720  0.3717  0.3714  0.3710  0.3712  0.3714  0.3716
 1975 085   146   0.1100  0.1300  0.1500  0.2200  0.2200  0.2200  0.2200  0.2200  0.2200  0.2200  0.2800  0.3000  0.3200  0.3700  0.3700  0.3700  0.3700  0.3700  0.3700  0.3700  0.3300  0.3750  0.4200  0.4200  0.4200  0.4200  0.4200  0.4200  0.4200  0.4200  1.1000  1.1500  1.2000  1.2500  1.2500  1.2500  1.2500  1.2500  1.2500  1.2500  0.3056  0.3165  0.3288  0.3752  0.3733  0.3722  0.3715  0.3716  0.3713  0.3715
 1975 086   147   0.1100  0.1300  0.1500  0.2200  0.2200  0.2200  0.2200  0.2200  0.2200  0.2200  0.2800  0.3000  0.3200  0.3700  0.3700  0.3700  0.3700  0.3700  0.3700  0.3700  0.3300  0.3750  0.4200  0.4200  0.4200  0.4200  0.4200  0.4200  0.4200  0.4200  1.1000  1.1500  1.2000  1.2500  1.2500  1.2500  1.2500  1.2500  1.2500  1.2500  0.3053  0.3364  0.3472  0.3860  0.3794  0.3757  0.3734  0.3726  0.3711  0.3714
 1975 087   148   0.1100  0.1300  0.1500  0.2200  0.2200  0.2200  0.2200  0.2200  0.2200  0.2200  0.2800  0.3000  0.3200  0.3700  0.3700  0.3700  0.3700  0.3700  0.3700  0.3700  0.3300  0.3750  0.4200  0.4200  0.4200  0.4200  0.4200  0.4200  0.4200  0.4200  1.1000  1.1500  1.2000  1.2500  1.2500  1.2500  1.2500  1.2500  1.2500  1.2500  0.2889  0.3177  0.3416  0.3880  0.3829  0.3788  0.3755  0.3717  0.3712  0.3711
 1975 088   149   0.1100  0.1300  0.1500  0.2200  0.2200  0.2200  0.2200  0.2200  0.2200  0.2200  0.2800  0.3000  0.3200  0.3700  0.3700  0.3700  0.3700  0.3700  0.3700  0.3700  0.3300  0.3750  0.4200  0.4200  0.4200  0.4200  0.4200  0.4200  0.4200  0.4200  1.1000  1.1500  1.2000  1.2500  1.2500  1.2500  1.2500  1.2500  1.2500  1.2500  0.2962  0.3107  0.3356  0.3863  0.3841  0.3811  0.3779  0.3718  0.3714  0.3726
 1975 089   150   0.1100  0.1300  0.1500  0.2200  0.2200  0.2200  0.2200  0.2200  0.2200  0.2200  0.2800  0.3000  0.3200  0.3700  0.3700  0.3700  0.3700  0.3700  0.3700  0.3700  0.3300  0.3750  0.4200  0.4200  0.4200  0.4200  0.4200  0.4200  0.4200  0.4200  1.1000  1.1500  1.2000  1.2500  1.2500  1.2500  1.2500  1.2500  1.2500  1.2500  0.3030  0.3124  0.3336  0.3845  0.3839  0.3822  0.3798  0.3722  0.3717  0.3720
 1975 090   151   0.1100  0.1300  0.1500  0.2200  0.2200  0.2200  0.2200  0.2200  0.2200  0.2200  0.2800  0.3000  0.3200  0.3700  0.3700  0.3700  0.3700  0.3700  0.3700  0.3700  0.3300  0.3750  0.4200  0.4200  0.4200  0.4200  0.4200  0.4200  0.4200  0.4200  1.1000  1.1500  1.2000  1.2500  1.2500  1.2500  1.2500  1.2500  1.2500  1.2500  0.2935  0.3074  0.3299  0.3816  0.3822  0.3818  0.3804  0.3724  0.3720  0.3719
 1975 091   152   0.1100  0.1300  0.1500  0.2200  0.2200  0.2200  0.2200  0.2200  0.2200  0.2200  0.2800  0.3000  0.3200  0.3700  0.3700  0.3700  0.3700  0.3700  0.3700  0.3700  0.3300  0.3750  0.4200  0.4200  0.4200  0.4200  0.4200  0.4200  0.4200  0.4200  1.1000  1.1500  1.2000  1.2500  1.2500  1.2500  1.2500  1.2500  1.2500  1.2500  0.3022  0.3157  0.3323  0.3814  0.3813  0.3812  0.3804  0.3726  0.3722  0.3719
 1975 092   153   0.1100  0.1300  0.1500  0.2200  0.2200  0.2200  0.2200  0.2200  0.2200  0.2200  0.2800  0.3000  0.3200  0.3700  0.3700  0.3700  0.3700  0.3700  0.3700  0.3700  0.3300  0.3750  0.4200  0.4200  0.4200  0.4200  0.4200  0.4200  0.4200  0.4200  1.1000  1.1500  1.2000  1.2500  1.2500  1.2500  1.2500  1.2500  1.2500  1.2500  0.3025  0.3117  0.3315  0.3810  0.3807  0.3806  0.3802  0.3726  0.3723  0.3720
 1975 093   154   0.1100  0.1300  0.1500  0.2200  0.2200  0.2200  0.2200  0.2200  0.2200  0.2200  0.2800  0.3000  0.3200  0.3700  0.3700  0.3700  0.3700  0.3700  0.3700  0.3700  0.3300  0.3750  0.4200  0.4200  0.4200  0.4200  0.4200  0.4200  0.4200  0.4200  1.1000  1.1500  1.2000  1.2500  1.2500  1.2500  1.2500  1.2500  1.2500  1.2500  0.3033  0.3296  0.3401  0.3852  0.3825  0.3813  0.3804  0.3728  0.3725  0.3721
 1975 094   155   0.1100  0.1300  0.1500  0.2200  0.2200  0.2200  0.2200  0.2200  0.2200  0.2200  0.2800  0.3000  0.3200  0.3700  0.3700  0.3700  0.3700  0.3700  0.3700  0.3700  0.3300  0.3750  0.4200  0.4200  0.4200  0.4200  0.4200  0.4200  0.4200  0.4200  1.1000  1.1500  1.2000  1.2500  1.2500  1.2500  1.2500  1.2500  1.2500  1.2500  0.2933  0.3161  0.3376  0.3859  0.3837  0.3822  0.3809  0.3728  0.3726  0.3722
 1975 095   156   0.1100  0.1300  0.1500  0.2200  0.2200  0.2200  0.2200  0.2200  0.2200  0.2200  0.2800  0.3000  0.3200  0.3700  0.3700  0.3700  0.3700  0.3700  0.3700  0.3700  0.3300  0.3750  0.4200  0.4200  0.4200  0.4200  0.4200  0.4200  0.4200  0.4200  1.1000  1.1500  1.2000  1.2500  1.2500  1.2500  1.2500  1.2500  1.2500  1.2500  0.3037  0.3281  0.3425  0.3888  0.3859  0.3838  0.3821  0.3732  0.3728  0.3724
 1975 096   157   0.1100  0.1300  0.1500  0.2200  0.2200  0.2200  0.2200  0.2200  0.2200  0.2200  0.2800  0.3000  0.3200  0.3700  0.3700  0.3700  0.3700  0.3700  0.3700  0.3700  0.3300  0.3750  0.4200  0.4200  0.4200  0.4200  0.4200  0.4200  0.4200  0.4200  1.1000  1.1500  1.2000  1.2500  1.2500  1.2500  1.2500  1.2500  1.2500  1.2500  0.2884  0.3141  0.3377  0.3877  0.3862  0.3846  0.3829  0.3733  0.3730  0.3726
 1975 097   158   0.1100  0.1300  0.1500  0.2200  0.2200  0.2200  0.2200  0.2200  0.2200  0.2200  0.2800  0.3000  0.3200  0.3700  0.3700  0.3700  0.3700  0.3700  0.3700  0.3700  0.3300  0.3750  0.4200  0.4200  0.4200  0.4200  0.4200  0.4200  0.4200  0.4200  1.1000  1.1500  1.2000  1.2500  1.2500  1.2500  1.2500  1.2500  1.2500  1.2500  0.3029  0.3126  0.3347  0.3857  0.3855  0.3847  0.3835  0.3736  0.3732  0.3728
 1975 098   159   0.1100  0.1300  0.1500  0.2200  0.2200  0.2200  0.2200  0.2200  0.2200  0.2200  0.2800  0.3000  0.3200  0.3700  0.3700  0.3700  0.3700  0.3700  0.3700  0.3700  0.3300  0.3750  0.4200  0.4200  0.4200  0.4200  0.4200  0.4200  0.4200  0.4200  1.1000  1.1500  1.2000  1.2500  1.2500  1.2500  1.2500  1.2500  1.2500  1.2500  0.2996  0.3263  0.3397  0.3869  0.3854  0.3846  0.3834  0.3735  0.3732  0.3728
 1975 099   160   0.1100  0.1300  0.1500  0.2200  0.2200  0.2200  0.2200  0.2200  0.2200  0.2200  0.2800  0.3000  0.3200  0.3700  0.3700  0.3700  0.3700  0.3700  0.3700  0.3700  0.3300  0.3750  0.4200  0.4200  0.4200  0.4200  0.4200  0.4200  0.4200  0.4200  1.1000  1.1500  1.2000  1.2500  1.2500  1.2500  1.2500  1.2500  1.2500  1.2500  0.2872  0.3127  0.3355  0.3855  0.3848  0.3842  0.3833  0.3734  0.3732  0.3728
 1975 100   161   0.1100  0.1300  0.1500  0.2200  0.2200  0.2200  0.2200  0.2200  0.2200  0.2200  0.2800  0.3000  0.3200  0.3700  0.3700  0.3700  0.3700  0.3700  0.3700  0.3700  0.3300  0.3750  0.4200  0.4200  0.4200  0.4200  0.4200  0.4200  0.4200  0.4200  1.1000  1.1500  1.2000  1.2500  1.2500  1.2500  1.2500  1.2500  1.2500  1.2500  0.2999  0.3087  0.3315  0.3829  0.3832  0.3833  0.3828  0.3734  0.3732  0.3729
 1975 101   162   0.1100  0.1300  0.1500  0.2200  0.2200  0.2200  0.2200  0.2200  0.2200  0.2200  0.2800  0.3000  0.3200  0.3700  0.3700  0.3700  0.3700  0.3700  0.3700  0.3700  0.3300  0.3750  0.4200  0.4200  0.4200  0.4200  0.4200  0.4200  0.4200  0.4200  1.1000  1.1500  1.2000  1.2500  1.2500  1.2500  1.2500  1.2500  1.2500  1.2500  0.2888  0.3050  0.3278  0.3799  0.3811  0.3819  0.3820  0.3734  0.3732  0.3729
 1975 102   163   0.1100  0.1300  0.1500  0.2200  0.2200  0.2200  0.2200  0.2200  0.2200  0.2200  0.2800  0.3000  0.3200  0.3700  0.3700  0.3700  0.3700  0.3700  0.3700  0.3700  0.3300  0.3750  0.4200  0.4200  0.4200  0.4200  0.4200  0.4200  0.4200  0.4200  1.1000  1.1500  1.2000  1.2500  1.2500  1.2500  1.2500  1.2500  1.2500  1.2500  0.2769  0.2988  0.3213  0.3729  0.3737  0.3745  0.3747  0.3709  0.3711  0.3725
 1975 103   164   0.1100  0.1300  0.1500  0.2200  0.2200  0.2200  0.2200  0.2200  0.2200  0.2200  0.2800  0.3000  0.3200  0.3700  0.3700  0.3700  0.3700  0.3700  0.3700  0.3700  0.3300  0.3750  0.4200  0.4200  0.4200  0.4200  0.4200  0.4200  0.4200  0.4200  1.1000  1.1500  1.2000  1.2500  1.2500  1.2500  1.2500  1.2500  1.2500  1.2500  0.2862  0.2989  0.3194  0.3704  0.3714  0.3725  0.3731  0.3716  0.3707  0.3721
 1975 104   165   0.1100  0.1300  0.1500  0.2200  0.2200  0.2200  0.2200  0.2200  0.2200  0.2200  0.2800  0.3000  0.3200  0.3700  0.3700  0.3700  0.3700  0.3700  0.3700  0.3700  0.3300  0.3750  0.4200  0.4200  0.4200  0.4200  0.4200  0.4200  0.4200  0.4200  1.1000  1.1500  1.2000  1.2500  1.2500  1.2500  1.2500  1.2500  1.2500  1.2500  0.3041  0.3170  0.3278  0.3738  0.3722  0.3722  0.3724  0.3723  0.3704  0.3719
 1975 105   166   0.1100  0.1300  0.1500  0.2200  0.2200  0.2200  0.2200  0.2200  0.2200  0.2200  0.2800  0.3000  0.3200  0.3700  0.3700  0.3700  0.3700  0.3700  0.3700  0.3700  0.3300  0.3750  0.4200  0.4200  0.4200  0.4200  0.4200  0.4200  0.4200  0.4200  1.1000  1.1500  1.2000  1.2500  1.2500  1.2500  1.2500  1.2500  1.2500  1.2500  0.3036  0.3172  0.3321  0.3775  0.3745  0.3731  0.3724  0.3713  0.3718  0.3717
 1975 106   167   0.1100  0.1300  0.1500  0.2200  0.2200  0.2200  0.2200  0.2200  0.2200  0.2200  0.2800  0.3000  0.3200  0.3700  0.3700  0.3700  0.3700  0.3700  0.3700  0.3700  0.3300  0.3750  0.4200  0.4200  0.4200  0.4200  0.4200  0.4200  0.4200  0.4200  1.1000  1.1500  1.2000  1.2500  1.2500  1.2500  1.2500  1.2500  1.2500  1.2500  0.2991  0.3199  0.3351  0.3805  0.3766  0.3743  0.3727  0.3718  0.3713  0.3713
 1975 107   168   0.1100  0.1300  0.1500  0.2200  0.2200  0.2200  0.2200  0.2200  0.2200  0.2200  0.2800  0.3000  0.3200  0.3700  0.3700  0.3700  0.3700  0.3700  0.3700  0.3700  0.3300  0.3750  0.4200  0.4200  0.4200  0.4200  0.4200  0.4200  0.4200  0.4200  1.1000  1.1500  1.2000  1.2500  1.2500  1.2500  1.2500  1.2500  1.2500  1.2500  0.2954  0.3123  0.3334  0.3816  0.3788  0.3763  0.3743  0.3714  0.3728  0.3711
 1975 108   169   0.1100  0.1300  0.1500  0.2200  0.2200  0.2200  0.2200  0.2200  0.2200  0.2200  0.2800  0.3000  0.3200  0.3700  0.3700  0.3700  0.3700  0.3700  0.3700  0.3700  0.3300  0.3750  0.4200  0.4200  0.4200  0.4200  0.4200  0.4200  0.4200  0.4200  1.1000  1.1500  1.2000  1.2500  1.2500  1.2500  1.2500  1.2500  1.2500  1.2500  0.2987  0.3329  0.3627  0.3924  0.3884  0.3818  0.3773  0.3713  0.3720  0.3714
 1975 109   170   0.1100  0.1300  0.1500  0.2200  0.2200  0.2200  0.2200  0.2200  0.2200  0.2200  0.2800  0.3000  0.3200  0.3700  0.3700  0.3700  0.3700  0.3700  0.3700  0.3700  0.3300  0.3750  0.4200  0.4200  0.4200  0.4200  0.4200  0.4200  0.4200  0.4200  1.1000  1.1500  1.2000  1.2500  1.2500  1.2500  1.2500  1.2500  1.2500  1.2500  0.2828  0.3130  0.3388  0.3792  0.3775  0.3745  0.3724  0.3706  0.3715  0.3710
 1975 110   171   0.1100  0.1300  0.1500  0.2200  0.2200  0.2200  0.2200  0.2200  0.2200  0.2200  0.2800  0.3000  0.3200  0.3700  0.3700  0.3700  0.3700  0.3700  0.3700  0.3700  0.3300  0.3750  0.4200  0.4200  0.4200  0.4200  0.4200  0.4200  0.4200  0.4200  1.1000  1.1500  1.2000  1.2500  1.2500  1.2500  1.2500  1.2500  1.2500  1.2500  0.2742  0.3019  0.3260  0.3719  0.3713  0.3704  0.3707  0.3696  0.3710  0.3705
 1975 111   172   0.1100  0.1300  0.1500  0.2200  0.2200  0.2200  0.2200  0.2200  0.2200  0.2200  0.2800  0.3000  0.3200  0.3700  0.3700  0.3700  0.3700  0.3700  0.3700  0.3700  0.3300  0.3750  0.4200  0.4200  0.4200  0.4200  0.4200  0.4200  0.4200  0.4200  1.1000  1.1500  1.2000  1.2500  1.2500  1.2500  1.2500  1.2500  1.2500  1.2500  0.2670  0.2980  0.3201  0.3696  0.3693  0.3689  0.3693  0.3692  0.3705  0.3701
 1975 112   173   0.1100  0.1300  0.1500  0.2200  0.2200  0.2200  0.2200  0.2200  0.2200  0.2200  0.2800  0.3000  0.3200  0.3700  0.3700  0.3700  0.3700  0.3700  0.3700  0.3700  0.3300  0.3750  0.4200  0.4200  0.4200  0.4200  0.4200  0.4200  0.4200  0.4200  1.1000  1.1500  1.2000  1.2500  1.2500  1.2500  1.2500  1.2500  1.2500  1.2500  0.2564  0.2922  0.3157  0.3662  0.3662  0.3665  0.3671  0.3680  0.3698  0.3696
 1975 113   174   0.1100  0.1300  0.1500  0.2200  0.2200  0.2200  0.2200  0.2200  0.2200  0.2200  0.2800  0.3000  0.3200  0.3700  0.3700  0.3700  0.3700  0.3700  0.3700  0.3700  0.3300  0.3750  0.4200  0.4200  0.4200  0.4200  0.4200  0.4200  0.4200  0.4200  1.1000  1.1500  1.2000  1.2500  1.2500  1.2500  1.2500  1.2500  1.2500  1.2500  0.2338  0.2888  0.3137  0.3647  0.3649  0.3656  0.3662  0.3677  0.3698  0.3695
 1975 114   175   0.1100  0.1300  0.1500  0.2200  0.2200  0.2200  0.2200  0.2200  0.2200  0.2200  0.2800  0.3000  0.3200  0.3700  0.3700  0.3700  0.3700  0.3700  0.3700  0.3700  0.3300  0.3750  0.4200  0.4200  0.4200  0.4200  0.4200  0.4200  0.4200  0.4200  1.1000  1.1500  1.2000  1.2500  1.2500  1.2500  1.2500  1.2500  1.2500  1.2500  0.2119  0.2843  0.3106  0.3625  0.3628  0.3642  0.3649  0.3672  0.3697  0.3695
 1975 115   176   0.1100  0.1300  0.1500  0.2200  0.2200  0.2200  0.2200  0.2200  0.2200  0.2200  0.2800  0.3000  0.3200  0.3700  0.3700  0.3700  0.3700  0.3700  0.3700  0.3700  0.3300  0.3750  0.4200  0.4200  0.4200  0.4200  0.4200  0.4200  0.4200  0.4200  1.1000  1.1500  1.2000  1.2500  1.2500  1.2500  1.2500  1.2500  1.2500  1.2500  0.2143  0.2814  0.3089  0.3613  0.3618  0.3635  0.3642  0.3670  0.3697  0.3695
 1975 116   177   0.1100  0.1300  0.1500  0.2200  0.2200  0.2200  0.2200  0.2200  0.2200  0.2200  0.2800  0.3000  0.3200  0.3700  0.3700  0.3700  0.3700  0.3700  0.3700  0.3700  0.3300  0.3750  0.4200  0.4200  0.4200  0.4200  0.4200  0.4200  0.4200  0.4200  1.1000  1.1500  1.2000  1.2500  1.2500  1.2500  1.2500  1.2500  1.2500  1.2500  0.1954  0.2780  0.3068  0.3598  0.3604  0.3625  0.3632  0.3667  0.3697  0.3695
 1975 117   178   0.1100  0.1300  0.1500  0.2200  0.2200  0.2200  0.2200  0.2200  0.2200  0.2200  0.2800  0.3000  0.3200  0.3700  0.3700  0.3700  0.3700  0.3700  0.3700  0.3700  0.3300  0.3750  0.4200  0.4200  0.4200  0.4200  0.4200  0.4200  0.4200  0.4200  1.1000  1.1500  1.2000  1.2500  1.2500  1.2500  1.2500  1.2500  1.2500  1.2500  0.1911  0.2772  0.3063  0.3595  0.3601  0.3623  0.3630  0.3666  0.3696  0.3695
 1975 118   179   0.1100  0.1300  0.1500  0.2200  0.2200  0.2200  0.2200  0.2200  0.2200  0.2200  0.2800  0.3000  0.3200  0.3700  0.3700  0.3700  0.3700  0.3700  0.3700  0.3700  0.3300  0.3750  0.4200  0.4200  0.4200  0.4200  0.4200  0.4200  0.4200  0.4200  1.1000  1.1500  1.2000  1.2500  1.2500  1.2500  1.2500  1.2500  1.2500  1.2500  0.1738  0.2733  0.3038  0.3576  0.3584  0.3611  0.3619  0.3662  0.3696  0.3695
 1975 119   180   0.1100  0.1300  0.1500  0.2200  0.2200  0.2200  0.2200  0.2200  0.2200  0.2200  0.2800  0.3000  0.3200  0.3700  0.3700  0.3700  0.3700  0.3700  0.3700  0.3700  0.3300  0.3750  0.4200  0.4200  0.4200  0.4200  0.4200  0.4200  0.4200  0.4200  1.1000  1.1500  1.2000  1.2500  1.2500  1.2500  1.2500  1.2500  1.2500  1.2500  0.1680  0.2698  0.3015  0.3560  0.3569  0.3601  0.3609  0.3659  0.3696  0.3695
 1975 120   181   0.1100  0.1300  0.1500  0.2200  0.2200  0.2200  0.2200  0.2200  0.2200  0.2200  0.2800  0.3000  0.3200  0.3700  0.3700  0.3700  0.3700  0.3700  0.3700  0.3700  0.3300  0.3750  0.4200  0.4200  0.4200  0.4200  0.4200  0.4200  0.4200  0.4200  1.1000  1.1500  1.2000  1.2500  1.2500  1.2500  1.2500  1.2500  1.2500  1.2500  0.1793  0.2658  0.2988  0.3540  0.3550  0.3588  0.3597  0.3655  0.3695  0.3695
 1975 121   182   0.1100  0.1300  0.1500  0.2200  0.2200  0.2200  0.2200  0.2200  0.2200  0.2200  0.2800  0.3000  0.3200  0.3700  0.3700  0.3700  0.3700  0.3700  0.3700  0.3700  0.3300  0.3750  0.4200  0.4200  0.4200  0.4200  0.4200  0.4200  0.4200  0.4200  1.1000  1.1500  1.2000  1.2500  1.2500  1.2500  1.2500  1.2500  1.2500  1.2500  0.1656  0.2631  0.2971  0.3528  0.3540  0.3581  0.3590  0.3652  0.3695  0.3695
 1975 122   183   0.1100  0.1300  0.1500  0.2200  0.2200  0.2200  0.2200  0.2200  0.2200  0.2200  0.2800  0.3000  0.3200  0.3700  0.3700  0.3700  0.3700  0.3700  0.3700  0.3700  0.3300  0.3750  0.4200  0.4200  0.4200  0.4200  0.4200  0.4200  0.4200  0.4200  1.1000  1.1500  1.2000  1.2500  1.2500  1.2500  1.2500  1.2500  1.2500  1.2500  0.2444  0.2596  0.2948  0.3512  0.3524  0.3570  0.3580  0.3648  0.3694  0.3695
 1975 123   184   0.1100  0.1300  0.1500  0.2200  0.2200  0.2200  0.2200  0.2200  0.2200  0.2200  0.2800  0.3000  0.3200  0.3700  0.3700  0.3700  0.3700  0.3700  0.3700  0.3700  0.3300  0.3750  0.4200  0.4200  0.4200  0.4200  0.4200  0.4200  0.4200  0.4200  1.1000  1.1500  1.2000  1.2500  1.2500  1.2500  1.2500  1.2500  1.2500  1.2500  0.2219  0.2555  0.2920  0.3491  0.3505  0.3557  0.3567  0.3644  0.3694  0.3694
 1975 124   185   0.1100  0.1300  0.1500  0.2200  0.2200  0.2200  0.2200  0.2200  0.2200  0.2200  0.2800  0.3000  0.3200  0.3700  0.3700  0.3700  0.3700  0.3700  0.3700  0.3700  0.3300  0.3750  0.4200  0.4200  0.4200  0.4200  0.4200  0.4200  0.4200  0.4200  1.1000  1.1500  1.2000  1.2500  1.2500  1.2500  1.2500  1.2500  1.2500  1.2500  0.2011  0.2511  0.2889  0.3468  0.3483  0.3542  0.3552  0.3639  0.3693  0.3694
 1975 125   186   0.1100  0.1300  0.1500  0.2200  0.2200  0.2200  0.2200  0.2200  0.2200  0.2200  0.2800  0.3000  0.3200  0.3700  0.3700  0.3700  0.3700  0.3700  0.3700  0.3700  0.3300  0.3750  0.4200  0.4200  0.4200  0.4200  0.4200  0.4200  0.4200  0.4200  1.1000  1.1500  1.2000  1.2500  1.2500  1.2500  1.2500  1.2500  1.2500  1.2500  0.1827  0.2471  0.2861  0.3448  0.3465  0.3528  0.3539  0.3635  0.3692  0.3694
 1975 126   187   0.1100  0.1300  0.1500  0.2200  0.2200  0.2200  0.2200  0.2200  0.2200  0.2200  0.2800  0.3000  0.3200  0.3700  0.3700  0.3700  0.3700  0.3700  0.3700  0.3700  0.3300  0.3750  0.4200  0.4200  0.4200  0.4200  0.4200  0.4200  0.4200  0.4200  1.1000  1.1500  1.2000  1.2500  1.2500  1.2500  1.2500  1.2500  1.2500  1.2500  0.1657  0.2429  0.2831  0.3426  0.3444  0.3514  0.3526  0.3630  0.3692  0.3694
 1975 127   188   0.1100  0.1300  0.1500  0.2200  0.2200  0.2200  0.2200  0.2200  0.2200  0.2200  0.2800  0.3000  0.3200  0.3700  0.3700  0.3700  0.3700  0.3700  0.3700  0.3700  0.3300  0.3750  0.4200  0.4200  0.4200  0.4200  0.4200  0.4200  0.4200  0.4200  1.1000  1.1500  1.2000  1.2500  1.2500  1.2500  1.2500  1.2500  1.2500  1.2500  0.2932  0.2964  0.2815  0.3414  0.3433  0.3507  0.3519  0.3627  0.3691  0.3694
[...]
 1975 168   229   0.1100  0.1300  0.1500  0.2200  0.2200  0.2200  0.2200  0.2200  0.2200  0.2200  0.2800  0.3000  0.3200  0.3700  0.3700  0.3700  0.3700  0.3700  0.3700  0.3700  0.3300  0.3750  0.4200  0.4200  0.4200  0.4200  0.4200  0.4200  0.4200  0.4200  1.1000  1.1500  1.2000  1.2500  1.2500  1.2500  1.2500  1.2500  1.2500  1.2500  0.2134  0.1688  0.2102  0.2892  0.2919  0.3156  0.3128  0.3479  0.3627  0.3680
 1975 169   230   0.1100  0.1300  0.1500  0.2200  0.2200  0.2200  0.2200  0.2200  0.2200  0.2200  0.2800  0.3000  0.3200  0.3700  0.3700  0.3700  0.3700  0.3700  0.3700  0.3700  0.3300  0.3750  0.4200  0.4200  0.4200  0.4200  0.4200  0.4200  0.4200  0.4200  1.1000  1.1500  1.2000  1.2500  1.2500  1.2500  1.2500  1.2500  1.2500  1.2500  0.1910  0.1670  0.2056  0.2870  0.2894  0.3129  0.3102  0.3469  0.3624  0.3679
 1975 170   231   0.1100  0.1300  0.1500  0.2200  0.2200  0.2200  0.2200  0.2200  0.2200  0.2200  0.2800  0.3000  0.3200  0.3700  0.3700  0.3700  0.3700  0.3700  0.3700  0.3700  0.3300  0.3750  0.4200  0.4200  0.4200  0.4200  0.4200  0.4200  0.4200  0.4200  1.1000  1.1500  1.2000  1.2500  1.2500  1.2500  1.2500  1.2500  1.2500  1.2500  0.1712  0.1654  0.2025  0.2852  0.2874  0.3104  0.3077  0.3460  0.3620  0.3678
 1975 171   232   0.1100  0.1300  0.1500  0.2200  0.2200  0.2200  0.2200  0.2200  0.2200  0.2200  0.2800  0.3000  0.3200  0.3700  0.3700  0.3700  0.3700  0.3700  0.3700  0.3700  0.3300  0.3750  0.4200  0.4200  0.4200  0.4200  0.4200  0.4200  0.4200  0.4200  1.1000  1.1500  1.2000  1.2500  1.2500  1.2500  1.2500  1.2500  1.2500  1.2500  0.1509  0.1637  0.1992  0.2829  0.2849  0.3069  0.3042  0.3447  0.3616  0.3677
 1975 172   233   0.1100  0.1300  0.1500  0.2200  0.2200  0.2200  0.2200  0.2200  0.2200  0.2200  0.2800  0.3000  0.3200  0.3700  0.3700  0.3700  0.3700  0.3700  0.3700  0.3700  0.3300  0.3750  0.4200  0.4200  0.4200  0.4200  0.4200  0.4200  0.4200  0.4200  1.1000  1.1500  1.2000  1.2500  1.2500  1.2500  1.2500  1.2500  1.2500  1.2500  0.1376  0.1620  0.1962  0.2807  0.2825  0.3028  0.3002  0.3432  0.3611  0.3676
 1975 173   234   0.1100  0.1300  0.1500  0.2200  0.2200  0.2200  0.2200  0.2200  0.2200  0.2200  0.2800  0.3000  0.3200  0.3700  0.3700  0.3700  0.3700  0.3700  0.3700  0.3700  0.3300  0.3750  0.4200  0.4200  0.4200  0.4200  0.4200  0.4200  0.4200  0.4200  1.1000  1.1500  1.2000  1.2500  1.2500  1.2500  1.2500  1.2500  1.2500  1.2500  0.1271  0.1602  0.1935  0.2784  0.2801  0.2981  0.2956  0.3415  0.3605  0.3675
 1975 174   235   0.1100  0.1300  0.1500  0.2200  0.2200  0.2200  0.2200  0.2200  0.2200  0.2200  0.2800  0.3000  0.3200  0.3700  0.3700  0.3700  0.3700  0.3700  0.3700  0.3700  0.3300  0.3750  0.4200  0.4200  0.4200  0.4200  0.4200  0.4200  0.4200  0.4200  1.1000  1.1500  1.2000  1.2500  1.2500  1.2500  1.2500  1.2500  1.2500  1.2500  0.2685  0.1610  0.1924  0.2774  0.2791  0.2960  0.2938  0.3406  0.3602  0.3674
 1975 175   236   0.1100  0.1300  0.1500  0.2200  0.2200  0.2200  0.2200  0.2200  0.2200  0.2200  0.2800  0.3000  0.3200  0.3700  0.3700  0.3700  0.3700  0.3700  0.3700  0.3700  0.3300  0.3750  0.4200  0.4200  0.4200  0.4200  0.4200  0.4200  0.4200  0.4200  1.1000  1.1500  1.2000  1.2500  1.2500  1.2500  1.2500  1.2500  1.2500  1.2500  0.2360  0.1593  0.1902  0.2754  0.2770  0.2919  0.2903  0.3387  0.3595  0.3672
 1975 176   237   0.1100  0.1300  0.1500  0.2200  0.2200  0.2200  0.2200  0.2200  0.2200  0.2200  0.2800  0.3000  0.3200  0.3700  0.3700  0.3700  0.3700  0.3700  0.3700  0.3700  0.3300  0.3750  0.4200  0.4200  0.4200  0.4200  0.4200  0.4200  0.4200  0.4200  1.1000  1.1500  1.2000  1.2500  1.2500  1.2500  1.2500  1.2500  1.2500  1.2500  0.2051  0.1576  0.1882  0.2735  0.2749  0.2883  0.2871  0.3366  0.3588  0.3670
 1975 177   238   0.1100  0.1300  0.1500  0.2200  0.2200  0.2200  0.2200  0.2200  0.2200  0.2200  0.2800  0.3000  0.3200  0.3700  0.3700  0.3700  0.3700  0.3700  0.3700  0.3700  0.3300  0.3750  0.4200  0.4200  0.4200  0.4200  0.4200  0.4200  0.4200  0.4200  1.1000  1.1500  1.2000  1.2500  1.2500  1.2500  1.2500  1.2500  1.2500  1.2500  0.1777  0.1561  0.1865  0.2718  0.2732  0.2857  0.2847  0.3346  0.3581  0.3668
 1975 178   239   0.1100  0.1300  0.1500  0.2200  0.2200  0.2200  0.2200  0.2200  0.2200  0.2200  0.2800  0.3000  0.3200  0.3700  0.3700  0.3700  0.3700  0.3700  0.3700  0.3700  0.3300  0.3750  0.4200  0.4200  0.4200  0.4200  0.4200  0.4200  0.4200  0.4200  1.1000  1.1500  1.2000  1.2500  1.2500  1.2500  1.2500  1.2500  1.2500  1.2500  0.1562  0.1549  0.1854  0.2707  0.2721  0.2840  0.2832  0.3332  0.3576  0.3667
 1975 179   240   0.1100  0.1300  0.1500  0.2200  0.2200  0.2200  0.2200  0.2200  0.2200  0.2200  0.2800  0.3000  0.3200  0.3700  0.3700  0.3700  0.3700  0.3700  0.3700  0.3700  0.3300  0.3750  0.4200  0.4200  0.4200  0.4200  0.4200  0.4200  0.4200  0.4200  1.1000  1.1500  1.2000  1.2500  1.2500  1.2500  1.2500  1.2500  1.2500  1.2500  0.1418  0.1539  0.1845  0.2699  0.2712  0.2829  0.2821  0.3321  0.3572  0.3666
 1975 180   241   0.1100  0.1300  0.1500  0.2200  0.2200  0.2200  0.2200  0.2200  0.2200  0.2200  0.2800  0.3000  0.3200  0.3700  0.3700  0.3700  0.3700  0.3700  0.3700  0.3700  0.3300  0.3750  0.4200  0.4200  0.4200  0.4200  0.4200  0.4200  0.4200  0.4200  1.1000  1.1500  1.2000  1.2500  1.2500  1.2500  1.2500  1.2500  1.2500  1.2500  0.1304  0.1527  0.1832  0.2685  0.2699  0.2810  0.2803  0.3301  0.3565  0.3664
 1975 181   242   0.1100  0.1300  0.1500  0.2200  0.2200  0.2200  0.2200  0.2200  0.2200  0.2200  0.2800  0.3000  0.3200  0.3700  0.3700  0.3700  0.3700  0.3700  0.3700  0.3700  0.3300  0.3750  0.4200  0.4200  0.4200  0.4200  0.4200  0.4200  0.4200  0.4200  1.1000  1.1500  1.2000  1.2500  1.2500  1.2500  1.2500  1.2500  1.2500  1.2500  0.1208  0.1513  0.1818  0.2670  0.2683  0.2788  0.2783  0.3275  0.3556  0.3661
 1975 182   243   0.1100  0.1300  0.1500  0.2200  0.2200  0.2200  0.2200  0.2200  0.2200  0.2200  0.2800  0.3000  0.3200  0.3700  0.3700  0.3700  0.3700  0.3700  0.3700  0.3700  0.3300  0.3750  0.4200  0.4200  0.4200  0.4200  0.4200  0.4200  0.4200  0.4200  1.1000  1.1500  1.2000  1.2500  1.2500  1.2500  1.2500  1.2500  1.2500  1.2500  0.1124  0.1499  0.1801  0.2652  0.2664  0.2764  0.2760  0.3242  0.3545  0.3658
 1975 183   244   0.1100  0.1300  0.1500  0.2200  0.2200  0.2200  0.2200  0.2200  0.2200  0.2200  0.2800  0.3000  0.3200  0.3700  0.3700  0.3700  0.3700  0.3700  0.3700  0.3700  0.3300  0.3750  0.4200  0.4200  0.4200  0.4200  0.4200  0.4200  0.4200  0.4200  1.1000  1.1500  1.2000  1.2500  1.2500  1.2500  1.2500  1.2500  1.2500  1.2500  0.1050  0.1485  0.1785  0.2634  0.2646  0.2741  0.2738  0.3206  0.3532  0.3655
 1975 184   245   0.1100  0.1300  0.1500  0.2200  0.2200  0.2200  0.2200  0.2200  0.2200  0.2200  0.2800  0.3000  0.3200  0.3700  0.3700  0.3700  0.3700  0.3700  0.3700  0.3700  0.3300  0.3750  0.4200  0.4200  0.4200  0.4200  0.4200  0.4200  0.4200  0.4200  1.1000  1.1500  1.2000  1.2500  1.2500  1.2500  1.2500  1.2500  1.2500  1.2500  0.0984  0.1474  0.1774  0.2622  0.2634  0.2726  0.2723  0.3178  0.3522  0.3652
 1975 185   246   0.1100  0.1300  0.1500  0.2200  0.2200  0.2200  0.2200  0.2200  0.2200  0.2200  0.2800  0.3000  0.3200  0.3700  0.3700  0.3700  0.3700  0.3700  0.3700  0.3700  0.3300  0.3750  0.4200  0.4200  0.4200  0.4200  0.4200  0.4200  0.4200  0.4200  1.1000  1.1500  1.2000  1.2500  1.2500  1.2500  1.2500  1.2500  1.2500  1.2500  0.0924  0.1465  0.1767  0.2614  0.2626  0.2717  0.2715  0.3160  0.3516  0.3650
 1975 186   247   0.1100  0.1300  0.1500  0.2200  0.2200  0.2200  0.2200  0.2200  0.2200  0.2200  0.2800  0.3000  0.3200  0.3700  0.3700  0.3700  0.3700  0.3700  0.3700  0.3700  0.3300  0.3750  0.4200  0.4200  0.4200  0.4200  0.4200  0.4200  0.4200  0.4200  1.1000  1.1500  1.2000  1.2500  1.2500  1.2500  1.2500  1.2500  1.2500  1.2500  0.0869  0.1455  0.1759  0.2606  0.2618  0.2708  0.2706  0.3141  0.3510  0.3648
 1975 187   248   0.1100  0.1300  0.1500  0.2200  0.2200  0.2200  0.2200  0.2200  0.2200  0.2200  0.2800  0.3000  0.3200  0.3700  0.3700  0.3700  0.3700  0.3700  0.3700  0.3700  0.3300  0.3750  0.4200  0.4200  0.4200  0.4200  0.4200  0.4200  0.4200  0.4200  1.1000  1.1500  1.2000  1.2500  1.2500  1.2500  1.2500  1.2500  1.2500  1.2500  0.0820  0.1444  0.1747  0.2593  0.2605  0.2692  0.2691  0.3104  0.3497  0.3645
 1975 188   249   0.1100  0.1300  0.1500  0.2200  0.2200  0.2200  0.2200  0.2200  0.2200  0.2200  0.2800  0.3000  0.3200  0.3700  0.3700  0.3700  0.3700  0.3700  0.3700  0.3700  0.3300  0.3750  0.4200  0.4200  0.4200  0.4200  0.4200  0.4200  0.4200  0.4200  1.1000  1.1500  1.2000  1.2500  1.2500  1.2500  1.2500  1.2500  1.2500  1.2500  0.1297  0.1434  0.1738  0.2582  0.2594  0.2680  0.2679  0.3074  0.3486  0.3642
 1975 189   250   0.1100  0.1300  0.1500  0.2200  0.2200  0.2200  0.2200  0.2200  0.2200  0.2200  0.2800  0.3000  0.3200  0.3700  0.3700  0.3700  0.3700  0.3700  0.3700  0.3700  0.3300  0.3750  0.4200  0.4200  0.4200  0.4200  0.4200  0.4200  0.4200  0.4200  1.1000  1.1500  1.2000  1.2500  1.2500  1.2500  1.2500  1.2500  1.2500  1.2500  0.1201  0.1425  0.1730  0.2573  0.2585  0.2670  0.2669  0.3048  0.3477  0.3639
 1975 190   251   0.1100  0.1300  0.1500  0.2200  0.2200  0.2200  0.2200  0.2200  0.2200  0.2200  0.2800  0.3000  0.3200  0.3700  0.3700  0.3700  0.3700  0.3700  0.3700  0.3700  0.3300  0.3750  0.4200  0.4200  0.4200  0.4200  0.4200  0.4200  0.4200  0.4200  1.1000  1.1500  1.2000  1.2500  1.2500  1.2500  1.2500  1.2500  1.2500  1.2500  0.1136  0.1416  0.1723  0.2566  0.2578  0.2662  0.2662  0.3025  0.3469  0.3637
 1975 191   252   0.1100  0.1300  0.1500  0.2200  0.2200  0.2200  0.2200  0.2200  0.2200  0.2200  0.2800  0.3000  0.3200  0.3700  0.3700  0.3700  0.3700  0.3700  0.3700  0.3700  0.3300  0.3750  0.4200  0.4200  0.4200  0.4200  0.4200  0.4200  0.4200  0.4200  1.1000  1.1500  1.2000  1.2500  1.2500  1.2500  1.2500  1.2500  1.2500  1.2500  0.1098  0.1408  0.1717  0.2559  0.2571  0.2654  0.2654  0.3002  0.3461  0.3635
 1975 192   253   0.1100  0.1300  0.1500  0.2200  0.2200  0.2200  0.2200  0.2200  0.2200  0.2200  0.2800  0.3000  0.3200  0.3700  0.3700  0.3700  0.3700  0.3700  0.3700  0.3700  0.3300  0.3750  0.4200  0.4200  0.4200  0.4200  0.4200  0.4200  0.4200  0.4200  1.1000  1.1500  1.2000  1.2500  1.2500  1.2500  1.2500  1.2500  1.2500  1.2500  0.1027  0.1399  0.1709  0.2550  0.2562  0.2644  0.2644  0.2971  0.3450  0.3632
 1975 193   254   0.1100  0.1300  0.1500  0.2200  0.2200  0.2200  0.2200  0.2200  0.2200  0.2200  0.2800  0.3000  0.3200  0.3700  0.3700  0.3700  0.3700  0.3700  0.3700  0.3700  0.3300  0.3750  0.4200  0.4200  0.4200  0.4200  0.4200  0.4200  0.4200  0.4200  1.1000  1.1500  1.2000  1.2500  1.2500  1.2500  1.2500  1.2500  1.2500  1.2500  0.1552  0.1392  0.1704  0.2544  0.2557  0.2639  0.2639  0.2958  0.3444  0.3630
 1975 194   255   0.1100  0.1300  0.1500  0.2200  0.2200  0.2200  0.2200  0.2200  0.2200  0.2200  0.2800  0.3000  0.3200  0.3700  0.3700  0.3700  0.3700  0.3700  0.3700  0.3700  0.3300  0.3750  0.4200  0.4200  0.4200  0.4200  0.4200  0.4200  0.4200  0.4200  1.1000  1.1500  1.2000  1.2500  1.2500  1.2500  1.2500  1.2500  1.2500  1.2500  0.1376  0.1384  0.1697  0.2537  0.2550  0.2631  0.2632  0.2940  0.3435  0.3628
 1975 195   256   0.1100  0.1300  0.1500  0.2200  0.2200  0.2200  0.2200  0.2200  0.2200  0.2200  0.2800  0.3000  0.3200  0.3700  0.3700  0.3700  0.3700  0.3700  0.3700  0.3700  0.3300  0.3750  0.4200  0.4200  0.4200  0.4200  0.4200  0.4200  0.4200  0.4200  1.1000  1.1500  1.2000  1.2500  1.2500  1.2500  1.2500  1.2500  1.2500  1.2500  0.1355  0.1375  0.1690  0.2529  0.2542  0.2622  0.2622  0.2917  0.3422  0.3624
 1975 196   257   0.1100  0.1300  0.1500  0.2200  0.2200  0.2200  0.2200  0.2200  0.2200  0.2200  0.2800  0.3000  0.3200  0.3700  0.3700  0.3700  0.3700  0.3700  0.3700  0.3700  0.3300  0.3750  0.4200  0.4200  0.4200  0.4200  0.4200  0.4200  0.4200  0.4200  1.1000  1.1500  1.2000  1.2500  1.2500  1.2500  1.2500  1.2500  1.2500  1.2500  0.1495  0.1367  0.1683  0.2521  0.2534  0.2613  0.2614  0.2900  0.3411  0.3621
 1975 197   258   0.1100  0.1300  0.1500  0.2200  0.2200  0.2200  0.2200  0.2200  0.2200  0.2200  0.2800  0.3000  0.3200  0.3700  0.3700  0.3700  0.3700  0.3700  0.3700  0.3700  0.3300  0.3750  0.4200  0.4200  0.4200  0.4200  0.4200  0.4200  0.4200  0.4200  1.1000  1.1500  1.2000  1.2500  1.2500  1.2500  1.2500  1.2500  1.2500  1.2500  0.1343  0.1359  0.1677  0.2514  0.2527  0.2606  0.2607  0.2885  0.3401  0.3618
 1975 198   259   0.1100  0.1300  0.1500  0.2200  0.2200  0.2200  0.2200  0.2200  0.2200  0.2200  0.2800  0.3000  0.3200  0.3700  0.3700  0.3700  0.3700  0.3700  0.3700  0.3700  0.3300  0.3750  0.4200  0.4200  0.4200  0.4200  0.4200  0.4200  0.4200  0.4200  1.1000  1.1500  1.2000  1.2500  1.2500  1.2500  1.2500  1.2500  1.2500  1.2500  0.2651  0.1361  0.1671  0.2508  0.2521  0.2600  0.2601  0.2873  0.3391  0.3615
 1975 199   260   0.1100  0.1300  0.1500  0.2200  0.2200  0.2200  0.2200  0.2200  0.2200  0.2200  0.2800  0.3000  0.3200  0.3700  0.3700  0.3700  0.3700  0.3700  0.3700  0.3700  0.3300  0.3750  0.4200  0.4200  0.4200  0.4200  0.4200  0.4200  0.4200  0.4200  1.1000  1.1500  1.2000  1.2500  1.2500  1.2500  1.2500  1.2500  1.2500  1.2500  0.2340  0.1354  0.1667  0.2503  0.2517  0.2595  0.2596  0.2864  0.3384  0.3614
 1975 200   261   0.1100  0.1300  0.1500  0.2200  0.2200  0.2200  0.2200  0.2200  0.2200  0.2200  0.2800  0.3000  0.3200  0.3700  0.3700  0.3700  0.3700  0.3700  0.3700  0.3700  0.3300  0.3750  0.4200  0.4200  0.4200  0.4200  0.4200  0.4200  0.4200  0.4200  1.1000  1.1500  1.2000  1.2500  1.2500  1.2500  1.2500  1.2500  1.2500  1.2500  0.2105  0.1347  0.1663  0.2499  0.2514  0.2592  0.2594  0.2860  0.3380  0.3612
 1975 201   262   0.1100  0.1300  0.1500  0.2200  0.2200  0.2200  0.2200  0.2200  0.2200  0.2200  0.2800  0.3000  0.3200  0.3700  0.3700  0.3700  0.3700  0.3700  0.3700  0.3700  0.3300  0.3750  0.4200  0.4200  0.4200  0.4200  0.4200  0.4200  0.4200  0.4200  1.1000  1.1500  1.2000  1.2500  1.2500  1.2500  1.2500  1.2500  1.2500  1.2500  0.1870  0.1341  0.1660  0.2496  0.2511  0.2589  0.2591  0.2855  0.3376  0.3611
 1975 202   263   0.1100  0.1300  0.1500  0.2200  0.2200  0.2200  0.2200  0.2200  0.2200  0.2200  0.2800  0.3000  0.3200  0.3700  0.3700  0.3700  0.3700  0.3700  0.3700  0.3700  0.3300  0.3750  0.4200  0.4200  0.4200  0.4200  0.4200  0.4200  0.4200  0.4200  1.1000  1.1500  1.2000  1.2500  1.2500  1.2500  1.2500  1.2500  1.2500  1.2500  0.1666  0.1334  0.1656  0.2492  0.2506  0.2585  0.2586  0.2847  0.3369  0.3609
 1975 203   264   0.1100  0.1300  0.1500  0.2200  0.2200  0.2200  0.2200  0.2200  0.2200  0.2200  0.2800  0.3000  0.3200  0.3700  0.3700  0.3700  0.3700  0.3700  0.3700  0.3700  0.3300  0.3750  0.4200  0.4200  0.4200  0.4200  0.4200  0.4200  0.4200  0.4200  1.1000  1.1500  1.2000  1.2500  1.2500  1.2500  1.2500  1.2500  1.2500  1.2500  0.1522  0.1328  0.1652  0.2488  0.2503  0.2582  0.2584  0.2843  0.3364  0.3608
 1975 204   265   0.1100  0.1300  0.1500  0.2200  0.2200  0.2200  0.2200  0.2200  0.2200  0.2200  0.2800  0.3000  0.3200  0.3700  0.3700  0.3700  0.3700  0.3700  0.3700  0.3700  0.3300  0.3750  0.4200  0.4200  0.4200  0.4200  0.4200  0.4200  0.4200  0.4200  1.1000  1.1500  1.2000  1.2500  1.2500  1.2500  1.2500  1.2500  1.2500  1.2500  0.1483  0.1321  0.1648  0.2483  0.2499  0.2577  0.2579  0.2835  0.3356  0.3606
 1975 205   266   0.1100  0.1300  0.1500  0.2200  0.2200  0.2200  0.2200  0.2200  0.2200  0.2200  0.2800  0.3000  0.3200  0.3700  0.3700  0.3700  0.3700  0.3700  0.3700  0.3700  0.3300  0.3750  0.4200  0.4200  0.4200  0.4200  0.4200  0.4200  0.4200  0.4200  1.1000  1.1500  1.2000  1.2500  1.2500  1.2500  1.2500  1.2500  1.2500  1.2500  0.1668  0.1315  0.1644  0.2478  0.2494  0.2572  0.2574  0.2827  0.3347  0.3603
 1975 206   267   0.1100  0.1300  0.1500  0.2200  0.2200  0.2200  0.2200  0.2200  0.2200  0.2200  0.2800  0.3000  0.3200  0.3700  0.3700  0.3700  0.3700  0.3700  0.3700  0.3700  0.3300  0.3750  0.4200  0.4200  0.4200  0.4200  0.4200  0.4200  0.4200  0.4200  1.1000  1.1500  1.2000  1.2500  1.2500  1.2500  1.2500  1.2500  1.2500  1.2500  0.1451  0.1309  0.1640  0.2475  0.2491  0.2569  0.2571  0.2822  0.3342  0.3602
 1975 207   268   0.1100  0.1300  0.1500  0.2200  0.2200  0.2200  0.2200  0.2200  0.2200  0.2200  0.2800  0.3000  0.3200  0.3700  0.3700  0.3700  0.3700  0.3700  0.3700  0.3700  0.3300  0.3750  0.4200  0.4200  0.4200  0.4200  0.4200  0.4200  0.4200  0.4200  1.1000  1.1500  1.2000  1.2500  1.2500  1.2500  1.2500  1.2500  1.2500  1.2500  0.1313  0.1302  0.1635  0.2468  0.2485  0.2562  0.2564  0.2811  0.3329  0.3598
 1975 208   269   0.1100  0.1300  0.1500  0.2200  0.2200  0.2200  0.2200  0.2200  0.2200  0.2200  0.2800  0.3000  0.3200  0.3700  0.3700  0.3700  0.3700  0.3700  0.3700  0.3700  0.3300  0.3750  0.4200  0.4200  0.4200  0.4200  0.4200  0.4200  0.4200  0.4200  1.1000  1.1500  1.2000  1.2500  1.2500  1.2500  1.2500  1.2500  1.2500  1.2500  0.1214  0.1296  0.1630  0.2463  0.2479  0.2556  0.2559  0.2802  0.3318  0.3595
 1975 209   270   0.1100  0.1300  0.1500  0.2200  0.2200  0.2200  0.2200  0.2200  0.2200  0.2200  0.2800  0.3000  0.3200  0.3700  0.3700  0.3700  0.3700  0.3700  0.3700  0.3700  0.3300  0.3750  0.4200  0.4200  0.4200  0.4200  0.4200  0.4200  0.4200  0.4200  1.1000  1.1500  1.2000  1.2500  1.2500  1.2500  1.2500  1.2500  1.2500  1.2500  0.1128  0.1291  0.1624  0.2456  0.2472  0.2549  0.2552  0.2791  0.3303  0.3591
 1975 210   271   0.1100  0.1300  0.1500  0.2200  0.2200  0.2200  0.2200  0.2200  0.2200  0.2200  0.2800  0.3000  0.3200  0.3700  0.3700  0.3700  0.3700  0.3700  0.3700  0.3700  0.3300  0.3750  0.4200  0.4200  0.4200  0.4200  0.4200  0.4200  0.4200  0.4200  1.1000  1.1500  1.2000  1.2500  1.2500  1.2500  1.2500  1.2500  1.2500  1.2500  0.1054  0.1286  0.1619  0.2450  0.2466  0.2542  0.2545  0.2781  0.3289  0.3587
 1975 211   272   0.1100  0.1300  0.1500  0.2200  0.2200  0.2200  0.2200  0.2200  0.2200  0.2200  0.2800  0.3000  0.3200  0.3700  0.3700  0.3700  0.3700  0.3700  0.3700  0.3700  0.3300  0.3750  0.4200  0.4200  0.4200  0.4200  0.4200  0.4200  0.4200  0.4200  1.1000  1.1500  1.2000  1.2500  1.2500  1.2500  1.2500  1.2500  1.2500  1.2500  0.0988  0.1280  0.1614  0.2444  0.2460  0.2536  0.2539  0.2772  0.3275  0.3583
 1975 212   273   0.1100  0.1300  0.1500  0.2200  0.2200  0.2200  0.2200  0.2200  0.2200  0.2200  0.2800  0.3000  0.3200  0.3700  0.3700  0.3700  0.3700  0.3700  0.3700  0.3700  0.3300  0.3750  0.4200  0.4200  0.4200  0.4200  0.4200  0.4200  0.4200  0.4200  1.1000  1.1500  1.2000  1.2500  1.2500  1.2500  1.2500  1.2500  1.2500  1.2500  0.0927  0.1275  0.1610  0.2440  0.2457  0.2533  0.2536  0.2768  0.3269  0.3581
 1975 213   274   0.1100  0.1300  0.1500  0.2200  0.2200  0.2200  0.2200  0.2200  0.2200  0.2200  0.2800  0.3000  0.3200  0.3700  0.3700  0.3700  0.3700  0.3700  0.3700  0.3700  0.3300  0.3750  0.4200  0.4200  0.4200  0.4200  0.4200  0.4200  0.4200  0.4200  1.1000  1.1500  1.2000  1.2500  1.2500  1.2500  1.2500  1.2500  1.2500  1.2500  0.0872  0.1270  0.1606  0.2435  0.2453  0.2528  0.2531  0.2761  0.3258  0.3578
 1975 214   275   0.1100  0.1300  0.1500  0.2200  0.2200  0.2200  0.2200  0.2200  0.2200  0.2200  0.2800  0.3000  0.3200  0.3700  0.3700  0.3700  0.3700  0.3700  0.3700  0.3700  0.3300  0.3750  0.4200  0.4200  0.4200  0.4200  0.4200  0.4200  0.4200  0.4200  1.1000  1.1500  1.2000  1.2500  1.2500  1.2500  1.2500  1.2500  1.2500  1.2500  0.0822  0.1264  0.1602  0.2431  0.2448  0.2524  0.2527  0.2755  0.3247  0.3575
