*WATER BALANCE SUMMARY OUTPUT FILE

*DSSAT Cropping System Model Ver. 4.8.5.021 -develop  JUL 11, 2025 15:43:00

!                           |----- Initial Water Content (mm) -----|------ Final Water Content (mm) -------|-------- Water Additions (mm) ---------|--------------- Water Losses (mm) ---------------|-----------|
!                           |    Soil     Mulch     Flood      Snow      Soil     Mulch     Flood      Snow    Precip     Irrig   LatFlow   Residue      Evap  Transpir    Runoff  Drainage   Tile Dr     Balance
@  Run FILEX          TN CR     SWTDi     MWTDi     FWTDi    SNOWDi      SWTD      MWTD      FWTD     SNOWD      PRCM      IRRC     LATFC     RESAC      ESCM      EPCM      ROCM      DRCM      TDFC     CUMWBAL
     1 RORO7401.WHX    1 WH    511.50      0.00      0.00      0.00    419.41      0.05      0.00      0.00    558.10      0.00      0.00      0.05    173.07    179.16      7.86      0.00      0.00    290.0940
     1 RORO7401.WHX    1 WH    511.50      0.00      0.00      0.00    419.41      0.05      0.00      0.00    558.10      0.00      0.00      0.05    173.07    179.16      7.86      0.00      0.00    290.0940
     1 SWSW7501.WHX    1 WH    358.50      0.00      0.00      0.00    275.27      0.00      0.00      0.00    162.00      0.00      0.00      0.00    131.95    113.27      0.00      0.00      0.00      0.0015
     1 SWSW7501.WHX    1 WH    358.50      0.00      0.00      0.00    257.64      0.00      0.00      0.00    162.00      0.00      0.00      0.00    120.89     59.51      0.00      0.00      0.00     82.4633
     1 SWSW7501.WHX    1 WH    358.50      0.00      0.00      0.00    275.27      0.00      0.00      0.00    162.00      0.00      0.00      0.00    131.95    113.27      0.00      0.00      0.00      0.0015
     1 SWSW7501.WHX    1 WH    358.50      0.00      0.00      0.00   1734.75      0.00      0.00      0.00    162.00      0.00      0.00      0.00    377.34     26.45      9.74      0.00      0.00  -1627.7743
     1 SWSW7501.WHX    1 WH    358.50      0.00      0.00      0.00    275.27      0.00      0.00      0.00    162.00      0.00      0.00      0.00    131.95    113.27      0.00      0.00      0.00      0.0015
     1 SWSW7501.WHX    1 WH    358.50      0.00      0.00      0.00    265.29      0.00      0.00      0.00      0.00      0.00      0.00      0.00     22.47     70.74      0.00      0.00      0.00     -0.0006
     1 SWSW7501.WHX    1 WH    358.50      0.00      0.00      0.00    265.29      0.00      0.00      0.00      0.00      0.00      0.00      0.00     22.47     70.74      0.00      0.00      0.00     -0.0006
     1 SWSW7501.WHX    1 WH    358.50      0.00      0.00      0.00    265.29      0.00      0.00      0.00      0.00      0.00      0.00      0.00     22.47     70.74      0.00      0.00      0.00     -0.0006
     1 SWSW7501.WHX    1 WH    358.50      0.00      0.00      0.00    275.27      0.00      0.00      0.00    162.00      0.00      0.00      0.00    131.95    113.27      0.00      0.00      0.00      0.0015
     1 SWSW7501.WHX    1 WH    358.50      0.00      0.00      0.00    275.27      0.00      0.00      0.00    162.00      0.00      0.00      0.00    131.95    113.27      0.00      0.00      0.00      0.0015
     1 SWSW7501.WHX    1 WH    358.50      0.00      0.00      0.00   1734.75      0.00      0.00      0.00    162.00      0.00      0.00      0.00    377.34     26.45      9.74      0.00      0.00  -1627.7743
     1 SWSW7501.WHX    1 WH    358.50      0.00      0.00      0.00   1734.75      0.00      0.00      0.00    162.00      0.00      0.00      0.00    377.34     26.45      9.74      0.00      0.00  -1627.7743
     1 SWSW7501.WHX    1 WH    358.50      0.00      0.00      0.00   1734.75      0.00      0.00      0.00    162.00      0.00      0.00      0.00    377.34     26.45      9.74      0.00      0.00  -1627.7743
     1 SWSW7501.WHX    1 WH    358.50      0.00      0.00      0.00   1734.75      0.00      0.00      0.00    162.00      0.00      0.00      0.00    377.34     26.45      9.74      0.00      0.00  -1627.7743
     1 SWSW7501.WHX    1 WH    358.50      0.00      0.00      0.00    741.49      0.00      0.00      0.00    162.00      0.00      0.00      0.00    279.90    129.97      9.13      0.00      0.00   -639.9996
     1 SWSW7501.WHX    1 WH    358.50      0.00      0.00      0.00    253.10      0.00      0.00      0.00    162.00      0.00      0.00      0.00     22.30     83.10      0.00      0.00      0.00    162.0030
     1 SWSW7501.WHX    1 WH    358.50      0.00      0.00      0.00    253.10      0.00      0.00      0.00    162.00      0.00      0.00      0.00     22.30     83.10      0.00      0.00      0.00    162.0030
     1 SWSW7501.WHX    1 WH    358.50      0.00      0.00      0.00    253.10      0.00      0.00      0.00    162.00      0.00      0.00      0.00     22.30     83.10      0.00      0.00      0.00    162.0030
     1 SWSW7501.WHX    1 WH    358.50      0.00      0.00      0.00   1734.75      0.00      0.00      0.00    162.00      0.00      0.00      0.00    377.34     26.45      9.74      0.00      0.00  -1627.7743
     1 SWSW7501.WHX    1 WH    358.50      0.00      0.00      0.00   1734.75      0.00      0.00      0.00    162.00      0.00      0.00      0.00    377.34     26.45      9.74      0.00      0.00  -1627.7743
     1 SWSW7501.WHX    1 WH    358.50      0.00      0.00      0.00   1734.75      0.00      0.00      0.00    162.00      0.00      0.00      0.00    377.34     26.45      9.74      0.00      0.00  -1627.7743
     1 SWSW7501.WHX    1 WH    358.50      0.00      0.00      0.00    275.27      0.00      0.00      0.00    162.00      0.00      0.00      0.00    131.95    113.27      0.00      0.00      0.00      0.0015
     1 SWSW7501.WHX    1 WH    358.50      0.00      0.00      0.00   1734.75      0.00      0.00      0.00    162.00      0.00      0.00      0.00    377.34     26.45      9.74      0.00      0.00  -1627.7743
     1 SWSW7501.WHX    1 WH    358.50      0.00      0.00      0.00   1734.75      0.00      0.00      0.00    162.00      0.00      0.00      0.00    377.34     26.45      9.74      0.00      0.00  -1627.7743
     1 SWSW7501.WHX    1 WH    358.50      0.00      0.00      0.00   1734.75      0.00      0.00      0.00    162.00      0.00      0.00      0.00    377.34     26.45      9.74      0.00      0.00  -1627.7743
     1 SWSW7501.WHX    1 WH    358.50      0.00      0.00      0.00   1573.76      0.00      0.00      0.00    162.00      0.00      0.00      0.00    375.54     29.23      9.60      0.00      0.00  -1467.6316
     1 SWSW7501.WHX    1 WH    358.50      0.00      0.00      0.00    275.27      0.00      0.00      0.00    162.00      0.00      0.00      0.00    131.95    113.28      0.00      0.00      0.00     -0.0022
