*SOIL WATER BY LAYER DAILY OUTPUT FILE

*DSSAT Cropping System Model Ver. 4.8.5.021 -my_coup_branch  AUG 28, 2025 14:55:29

!----------------------------
! Variable Descriptions (unit)
!----------------------------
!YEAR    Year of current date of simulation (YYYY)
!DOY     Day of year (d)
!DAS     Days after start of simulation (d)
!LL#D    Volumetric soil water content at Lower Limit in soil layer # (cm3 [water] / cm3 [soil])
!DUL#D   Volumetric soil water content at Drained Upper Limit in soil layer # (cm3[water]/cm3[soil])
!SAT#D   Volumetric soil water content at Saturation in soil layer # (cm3 [water] / cm3 [soil])
!BD#D    Bulk density in soil layer # (g [soil] / cm3 [soil])
!SW#D    Volumetric soil water content in soil layer #  (cm3 [water] / cm3 [soil])

!                    0-5    5-15   15-30   30-45   45-60   60-75   75-90  90-120 120-150     0-5    5-15   15-30   30-45   45-60   60-75   75-90  90-120 120-150     0-5    5-15   15-30   30-45   45-60   60-75   75-90  90-120 120-150     0-5    5-15   15-30   30-45   45-60   60-75   75-90  90-120 120-150     0-5    5-15   15-30   30-45   45-60   60-75   75-90  90-120 120-150
@YEAR DOY   DAS     LL1D    LL2D    LL3D    LL4D    LL5D    LL6D    LL7D    LL8D    LL9D   DUL1D   DUL2D   DUL3D   DUL4D   DUL5D   DUL6D   DUL7D   DUL8D   DUL9D   SAT1D   SAT2D   SAT3D   SAT4D   SAT5D   SAT6D   SAT7D   SAT8D   SAT9D    BD1D    BD2D    BD3D    BD4D    BD5D    BD6D    BD7D    BD8D    BD9D    SW1D    SW2D    SW3D    SW4D    SW5D    SW6D    SW7D    SW8D    SW9D
 1975 132     1   0.0960  0.0960  0.1120  0.0940  0.1030  0.1030  0.1020  0.1020  0.1020  0.2300  0.2300  0.2500  0.2200  0.2200  0.2200  0.2500  0.2500  0.2500  0.4400  0.4400  0.4400  0.4400  0.4400  0.4400  0.4400  0.4400  0.4400  1.2000  1.2000  1.2000  1.2000  1.2000  1.2000  1.2000  1.2000  1.2000  0.2259  0.2240  0.2488  0.2198  0.2183  0.2186  0.2486  0.2488  0.2490
 1975 133     2   0.0960  0.0960  0.1120  0.0940  0.1030  0.1030  0.1020  0.1020  0.1020  0.2300  0.2300  0.2500  0.2200  0.2200  0.2200  0.2500  0.2500  0.2500  0.4400  0.4400  0.4400  0.4400  0.4400  0.4400  0.4400  0.4400  0.4400  1.2000  1.2000  1.2000  1.2000  1.2000  1.2000  1.2000  1.2000  1.2000  0.2491  0.2202  0.2476  0.2196  0.2168  0.2173  0.2473  0.2477  0.2481
 1975 134     3   0.0960  0.0960  0.1120  0.0940  0.1030  0.1030  0.1020  0.1020  0.1020  0.2300  0.2300  0.2500  0.2200  0.2200  0.2200  0.2500  0.2500  0.2500  0.4400  0.4400  0.4400  0.4400  0.4400  0.4400  0.4400  0.4400  0.4400  1.2000  1.2000  1.2000  1.2000  1.2000  1.2000  1.2000  1.2000  1.2000  0.2413  0.2158  0.2455  0.2187  0.2149  0.2156  0.2456  0.2463  0.2470
 1975 135     4   0.0960  0.0960  0.1120  0.0940  0.1030  0.1030  0.1020  0.1020  0.1020  0.2300  0.2300  0.2500  0.2200  0.2200  0.2200  0.2500  0.2500  0.2500  0.4400  0.4400  0.4400  0.4400  0.4400  0.4400  0.4400  0.4400  0.4400  1.2000  1.2000  1.2000  1.2000  1.2000  1.2000  1.2000  1.2000  1.2000  0.2242  0.2114  0.2437  0.2180  0.2131  0.2142  0.2442  0.2451  0.2460
 1975 136     5   0.0960  0.0960  0.1120  0.0940  0.1030  0.1030  0.1020  0.1020  0.1020  0.2300  0.2300  0.2500  0.2200  0.2200  0.2200  0.2500  0.2500  0.2500  0.4400  0.4400  0.4400  0.4400  0.4400  0.4400  0.4400  0.4400  0.4400  1.2000  1.2000  1.2000  1.2000  1.2000  1.2000  1.2000  1.2000  1.2000  0.2038  0.2108  0.2451  0.2194  0.2131  0.2141  0.2441  0.2451  0.2460
 1975 137     6   0.0960  0.0960  0.1120  0.0940  0.1030  0.1030  0.1020  0.1020  0.1020  0.2300  0.2300  0.2500  0.2200  0.2200  0.2200  0.2500  0.2500  0.2500  0.4400  0.4400  0.4400  0.4400  0.4400  0.4400  0.4400  0.4400  0.4400  1.2000  1.2000  1.2000  1.2000  1.2000  1.2000  1.2000  1.2000  1.2000  0.1849  0.2048  0.2428  0.2184  0.2113  0.2126  0.2426  0.2438  0.2449
 1975 138     7   0.0960  0.0960  0.1120  0.0940  0.1030  0.1030  0.1020  0.1020  0.1020  0.2300  0.2300  0.2500  0.2200  0.2200  0.2200  0.2500  0.2500  0.2500  0.4400  0.4400  0.4400  0.4400  0.4400  0.4400  0.4400  0.4400  0.4400  1.2000  1.2000  1.2000  1.2000  1.2000  1.2000  1.2000  1.2000  1.2000  0.1671  0.2032  0.2440  0.2196  0.2113  0.2126  0.2426  0.2437  0.2449
 1975 139     8   0.0960  0.0960  0.1120  0.0940  0.1030  0.1030  0.1020  0.1020  0.1020  0.2300  0.2300  0.2500  0.2200  0.2200  0.2200  0.2500  0.2500  0.2500  0.4400  0.4400  0.4400  0.4400  0.4400  0.4400  0.4400  0.4400  0.4400  1.2000  1.2000  1.2000  1.2000  1.2000  1.2000  1.2000  1.2000  1.2000  0.1544  0.1981  0.2425  0.2190  0.2099  0.2114  0.2414  0.2428  0.2441
 1975 140     9   0.0960  0.0960  0.1120  0.0940  0.1030  0.1030  0.1020  0.1020  0.1020  0.2300  0.2300  0.2500  0.2200  0.2200  0.2200  0.2500  0.2500  0.2500  0.4400  0.4400  0.4400  0.4400  0.4400  0.4400  0.4400  0.4400  0.4400  1.2000  1.2000  1.2000  1.2000  1.2000  1.2000  1.2000  1.2000  1.2000  0.1399  0.1961  0.2435  0.2201  0.2099  0.2114  0.2414  0.2427  0.2441
 1975 141    10   0.0960  0.0960  0.1120  0.0940  0.1030  0.1030  0.1020  0.1020  0.1020  0.2300  0.2300  0.2500  0.2200  0.2200  0.2200  0.2500  0.2500  0.2500  0.4400  0.4400  0.4400  0.4400  0.4400  0.4400  0.4400  0.4400  0.4400  1.2000  1.2000  1.2000  1.2000  1.2000  1.2000  1.2000  1.2000  1.2000  0.1351  0.1930  0.2423  0.2192  0.2079  0.2094  0.2390  0.2404  0.2418
 1975 142    11   0.0960  0.0960  0.1120  0.0940  0.1030  0.1030  0.1020  0.1020  0.1020  0.2300  0.2300  0.2500  0.2200  0.2200  0.2200  0.2500  0.2500  0.2500  0.4400  0.4400  0.4400  0.4400  0.4400  0.4400  0.4400  0.4400  0.4400  1.2000  1.2000  1.2000  1.2000  1.2000  1.2000  1.2000  1.2000  1.2000  0.1227  0.1909  0.2431  0.2202  0.2079  0.2093  0.2390  0.2404  0.2418
 1975 143    12   0.0960  0.0960  0.1120  0.0940  0.1030  0.1030  0.1020  0.1020  0.1020  0.2300  0.2300  0.2500  0.2200  0.2200  0.2200  0.2500  0.2500  0.2500  0.4400  0.4400  0.4400  0.4400  0.4400  0.4400  0.4400  0.4400  0.4400  1.2000  1.2000  1.2000  1.2000  1.2000  1.2000  1.2000  1.2000  1.2000  0.1185  0.1879  0.2418  0.2191  0.2059  0.2074  0.2367  0.2381  0.2395
 1975 144    13   0.0960  0.0960  0.1120  0.0940  0.1030  0.1030  0.1020  0.1020  0.1020  0.2300  0.2300  0.2500  0.2200  0.2200  0.2200  0.2500  0.2500  0.2500  0.4400  0.4400  0.4400  0.4400  0.4400  0.4400  0.4400  0.4400  0.4400  1.2000  1.2000  1.2000  1.2000  1.2000  1.2000  1.2000  1.2000  1.2000  0.1227  0.1860  0.2426  0.2200  0.2059  0.2073  0.2367  0.2381  0.2395
 1975 145    14   0.0960  0.0960  0.1120  0.0940  0.1030  0.1030  0.1020  0.1020  0.1020  0.2300  0.2300  0.2500  0.2200  0.2200  0.2200  0.2500  0.2500  0.2500  0.4400  0.4400  0.4400  0.4400  0.4400  0.4400  0.4400  0.4400  0.4400  1.2000  1.2000  1.2000  1.2000  1.2000  1.2000  1.2000  1.2000  1.2000  0.1551  0.1824  0.2408  0.2193  0.2046  0.2063  0.2356  0.2372  0.2388
 1975 146    15   0.0960  0.0960  0.1120  0.0940  0.1030  0.1030  0.1020  0.1020  0.1020  0.2300  0.2300  0.2500  0.2200  0.2200  0.2200  0.2500  0.2500  0.2500  0.4400  0.4400  0.4400  0.4400  0.4400  0.4400  0.4400  0.4400  0.4400  1.2000  1.2000  1.2000  1.2000  1.2000  1.2000  1.2000  1.2000  1.2000  0.1682  0.1828  0.2414  0.2201  0.2046  0.2062  0.2356  0.2371  0.2388
 1975 147    16   0.0960  0.0960  0.1120  0.0940  0.1030  0.1030  0.1020  0.1020  0.1020  0.2300  0.2300  0.2500  0.2200  0.2200  0.2200  0.2500  0.2500  0.2500  0.4400  0.4400  0.4400  0.4400  0.4400  0.4400  0.4400  0.4400  0.4400  1.2000  1.2000  1.2000  1.2000  1.2000  1.2000  1.2000  1.2000  1.2000  0.1736  0.1797  0.2386  0.2186  0.2029  0.2048  0.2341  0.2359  0.2377
 1975 148    17   0.0960  0.0960  0.1120  0.0940  0.1030  0.1030  0.1020  0.1020  0.1020  0.2300  0.2300  0.2500  0.2200  0.2200  0.2200  0.2500  0.2500  0.2500  0.4400  0.4400  0.4400  0.4400  0.4400  0.4400  0.4400  0.4400  0.4400  1.2000  1.2000  1.2000  1.2000  1.2000  1.2000  1.2000  1.2000  1.2000  0.1676  0.1807  0.2392  0.2193  0.2029  0.2047  0.2341  0.2359  0.2377
 1975 149    18   0.0960  0.0960  0.1120  0.0940  0.1030  0.1030  0.1020  0.1020  0.1020  0.2300  0.2300  0.2500  0.2200  0.2200  0.2200  0.2500  0.2500  0.2500  0.4400  0.4400  0.4400  0.4400  0.4400  0.4400  0.4400  0.4400  0.4400  1.2000  1.2000  1.2000  1.2000  1.2000  1.2000  1.2000  1.2000  1.2000  0.1561  0.1812  0.2398  0.2200  0.2028  0.2047  0.2340  0.2359  0.2377
 1975 150    19   0.0960  0.0960  0.1120  0.0940  0.1030  0.1030  0.1020  0.1020  0.1020  0.2300  0.2300  0.2500  0.2200  0.2200  0.2200  0.2500  0.2500  0.2500  0.4400  0.4400  0.4400  0.4400  0.4400  0.4400  0.4400  0.4400  0.4400  1.2000  1.2000  1.2000  1.2000  1.2000  1.2000  1.2000  1.2000  1.2000  0.1431  0.1762  0.2362  0.2179  0.2008  0.2029  0.2323  0.2343  0.2365
 1975 151    20   0.0960  0.0960  0.1120  0.0940  0.1030  0.1030  0.1020  0.1020  0.1020  0.2300  0.2300  0.2500  0.2200  0.2200  0.2200  0.2500  0.2500  0.2500  0.4400  0.4400  0.4400  0.4400  0.4400  0.4400  0.4400  0.4400  0.4400  1.2000  1.2000  1.2000  1.2000  1.2000  1.2000  1.2000  1.2000  1.2000  0.1379  0.1760  0.2368  0.2185  0.2007  0.2029  0.2322  0.2343  0.2365
 1975 152    21   0.0960  0.0960  0.1120  0.0940  0.1030  0.1030  0.1020  0.1020  0.1020  0.2300  0.2300  0.2500  0.2200  0.2200  0.2200  0.2500  0.2500  0.2500  0.4400  0.4400  0.4400  0.4400  0.4400  0.4400  0.4400  0.4400  0.4400  1.2000  1.2000  1.2000  1.2000  1.2000  1.2000  1.2000  1.2000  1.2000  0.1333  0.1756  0.2374  0.2191  0.2007  0.2028  0.2322  0.2343  0.2365
 1975 153    22   0.0960  0.0960  0.1120  0.0940  0.1030  0.1030  0.1020  0.1020  0.1020  0.2300  0.2300  0.2500  0.2200  0.2200  0.2200  0.2500  0.2500  0.2500  0.4400  0.4400  0.4400  0.4400  0.4400  0.4400  0.4400  0.4400  0.4400  1.2000  1.2000  1.2000  1.2000  1.2000  1.2000  1.2000  1.2000  1.2000  0.1255  0.1750  0.2379  0.2198  0.2007  0.2028  0.2322  0.2343  0.2365
 1975 154    23   0.0960  0.0960  0.1120  0.0940  0.1030  0.1030  0.1020  0.1020  0.1020  0.2300  0.2300  0.2500  0.2200  0.2200  0.2200  0.2500  0.2500  0.2500  0.4400  0.4400  0.4400  0.4400  0.4400  0.4400  0.4400  0.4400  0.4400  1.2000  1.2000  1.2000  1.2000  1.2000  1.2000  1.2000  1.2000  1.2000  0.1957  0.1754  0.2370  0.2193  0.1999  0.2021  0.2315  0.2337  0.2361
 1975 155    24   0.0960  0.0960  0.1120  0.0940  0.1030  0.1030  0.1020  0.1020  0.1020  0.2300  0.2300  0.2500  0.2200  0.2200  0.2200  0.2500  0.2500  0.2500  0.4400  0.4400  0.4400  0.4400  0.4400  0.4400  0.4400  0.4400  0.4400  1.2000  1.2000  1.2000  1.2000  1.2000  1.2000  1.2000  1.2000  1.2000  0.2069  0.1800  0.2377  0.2199  0.1999  0.2021  0.2315  0.2337  0.2361
 1975 156    25   0.0960  0.0960  0.1120  0.0940  0.1030  0.1030  0.1020  0.1020  0.1020  0.2300  0.2300  0.2500  0.2200  0.2200  0.2200  0.2500  0.2500  0.2500  0.4400  0.4400  0.4400  0.4400  0.4400  0.4400  0.4400  0.4400  0.4400  1.2000  1.2000  1.2000  1.2000  1.2000  1.2000  1.2000  1.2000  1.2000  0.2166  0.1793  0.2342  0.2176  0.1979  0.2004  0.2298  0.2322  0.2348
 1975 157    26   0.0960  0.0960  0.1120  0.0940  0.1030  0.1030  0.1020  0.1020  0.1020  0.2300  0.2300  0.2500  0.2200  0.2200  0.2200  0.2500  0.2500  0.2500  0.4400  0.4400  0.4400  0.4400  0.4400  0.4400  0.4400  0.4400  0.4400  1.2000  1.2000  1.2000  1.2000  1.2000  1.2000  1.2000  1.2000  1.2000  0.2274  0.1791  0.2310  0.2154  0.1959  0.1987  0.2281  0.2308  0.2336
 1975 158    27   0.0960  0.0960  0.1120  0.0940  0.1030  0.1030  0.1020  0.1020  0.1020  0.2300  0.2300  0.2500  0.2200  0.2200  0.2200  0.2500  0.2500  0.2500  0.4400  0.4400  0.4400  0.4400  0.4400  0.4400  0.4400  0.4400  0.4400  1.2000  1.2000  1.2000  1.2000  1.2000  1.2000  1.2000  1.2000  1.2000  0.2214  0.1797  0.2289  0.2140  0.1946  0.1975  0.2269  0.2297  0.2328
 1975 159    28   0.0960  0.0960  0.1120  0.0940  0.1030  0.1030  0.1020  0.1020  0.1020  0.2300  0.2300  0.2500  0.2200  0.2200  0.2200  0.2500  0.2500  0.2500  0.4400  0.4400  0.4400  0.4400  0.4400  0.4400  0.4400  0.4400  0.4400  1.2000  1.2000  1.2000  1.2000  1.2000  1.2000  1.2000  1.2000  1.2000  0.2039  0.1818  0.2295  0.2144  0.1945  0.1975  0.2269  0.2297  0.2328
 1975 160    29   0.0960  0.0960  0.1120  0.0940  0.1030  0.1030  0.1020  0.1020  0.1020  0.2300  0.2300  0.2500  0.2200  0.2200  0.2200  0.2500  0.2500  0.2500  0.4400  0.4400  0.4400  0.4400  0.4400  0.4400  0.4400  0.4400  0.4400  1.2000  1.2000  1.2000  1.2000  1.2000  1.2000  1.2000  1.2000  1.2000  0.1845  0.1823  0.2301  0.2148  0.1945  0.1975  0.2268  0.2297  0.2328
 1975 161    30   0.0960  0.0960  0.1120  0.0940  0.1030  0.1030  0.1020  0.1020  0.1020  0.2300  0.2300  0.2500  0.2200  0.2200  0.2200  0.2500  0.2500  0.2500  0.4400  0.4400  0.4400  0.4400  0.4400  0.4400  0.4400  0.4400  0.4400  1.2000  1.2000  1.2000  1.2000  1.2000  1.2000  1.2000  1.2000  1.2000  0.1655  0.1817  0.2305  0.2153  0.1945  0.1975  0.2268  0.2297  0.2328
 1975 162    31   0.0960  0.0960  0.1120  0.0940  0.1030  0.1030  0.1020  0.1020  0.1020  0.2300  0.2300  0.2500  0.2200  0.2200  0.2200  0.2500  0.2500  0.2500  0.4400  0.4400  0.4400  0.4400  0.4400  0.4400  0.4400  0.4400  0.4400  1.2000  1.2000  1.2000  1.2000  1.2000  1.2000  1.2000  1.2000  1.2000  0.1476  0.1799  0.2306  0.2157  0.1945  0.1974  0.2268  0.2297  0.2328
 1975 163    32   0.0960  0.0960  0.1120  0.0940  0.1030  0.1030  0.1020  0.1020  0.1020  0.2300  0.2300  0.2500  0.2200  0.2200  0.2200  0.2500  0.2500  0.2500  0.4400  0.4400  0.4400  0.4400  0.4400  0.4400  0.4400  0.4400  0.4400  1.2000  1.2000  1.2000  1.2000  1.2000  1.2000  1.2000  1.2000  1.2000  0.1331  0.1783  0.2309  0.2161  0.1944  0.1974  0.2268  0.2297  0.2328
 1975 164    33   0.0960  0.0960  0.1120  0.0940  0.1030  0.1030  0.1020  0.1020  0.1020  0.2300  0.2300  0.2500  0.2200  0.2200  0.2200  0.2500  0.2500  0.2500  0.4400  0.4400  0.4400  0.4400  0.4400  0.4400  0.4400  0.4400  0.4400  1.2000  1.2000  1.2000  1.2000  1.2000  1.2000  1.2000  1.2000  1.2000  0.1282  0.1763  0.2309  0.2165  0.1944  0.1974  0.2267  0.2296  0.2328
 1975 165    34   0.0960  0.0960  0.1120  0.0940  0.1030  0.1030  0.1020  0.1020  0.1020  0.2300  0.2300  0.2500  0.2200  0.2200  0.2200  0.2500  0.2500  0.2500  0.4400  0.4400  0.4400  0.4400  0.4400  0.4400  0.4400  0.4400  0.4400  1.2000  1.2000  1.2000  1.2000  1.2000  1.2000  1.2000  1.2000  1.2000  0.1523  0.1750  0.2308  0.2169  0.1944  0.1973  0.2267  0.2296  0.2329
 1975 166    35   0.0960  0.0960  0.1120  0.0940  0.1030  0.1030  0.1020  0.1020  0.1020  0.2300  0.2300  0.2500  0.2200  0.2200  0.2200  0.2500  0.2500  0.2500  0.4400  0.4400  0.4400  0.4400  0.4400  0.4400  0.4400  0.4400  0.4400  1.2000  1.2000  1.2000  1.2000  1.2000  1.2000  1.2000  1.2000  1.2000  0.1543  0.1745  0.2307  0.2172  0.1944  0.1973  0.2267  0.2296  0.2329
 1975 167    36   0.0960  0.0960  0.1120  0.0940  0.1030  0.1030  0.1020  0.1020  0.1020  0.2300  0.2300  0.2500  0.2200  0.2200  0.2200  0.2500  0.2500  0.2500  0.4400  0.4400  0.4400  0.4400  0.4400  0.4400  0.4400  0.4400  0.4400  1.2000  1.2000  1.2000  1.2000  1.2000  1.2000  1.2000  1.2000  1.2000  0.1443  0.1737  0.2305  0.2176  0.1943  0.1973  0.2267  0.2296  0.2329
 1975 168    37   0.0960  0.0960  0.1120  0.0940  0.1030  0.1030  0.1020  0.1020  0.1020  0.2300  0.2300  0.2500  0.2200  0.2200  0.2200  0.2500  0.2500  0.2500  0.4400  0.4400  0.4400  0.4400  0.4400  0.4400  0.4400  0.4400  0.4400  1.2000  1.2000  1.2000  1.2000  1.2000  1.2000  1.2000  1.2000  1.2000  0.1561  0.1733  0.2303  0.2178  0.1943  0.1973  0.2266  0.2296  0.2329
 1975 169    38   0.0960  0.0960  0.1120  0.0940  0.1030  0.1030  0.1020  0.1020  0.1020  0.2300  0.2300  0.2500  0.2200  0.2200  0.2200  0.2500  0.2500  0.2500  0.4400  0.4400  0.4400  0.4400  0.4400  0.4400  0.4400  0.4400  0.4400  1.2000  1.2000  1.2000  1.2000  1.2000  1.2000  1.2000  1.2000  1.2000  0.1667  0.1734  0.2298  0.2180  0.1943  0.1972  0.2266  0.2296  0.2329
 1975 170    39   0.0960  0.0960  0.1120  0.0940  0.1030  0.1030  0.1020  0.1020  0.1020  0.2300  0.2300  0.2500  0.2200  0.2200  0.2200  0.2500  0.2500  0.2500  0.4400  0.4400  0.4400  0.4400  0.4400  0.4400  0.4400  0.4400  0.4400  1.2000  1.2000  1.2000  1.2000  1.2000  1.2000  1.2000  1.2000  1.2000  0.4625  0.2091  0.2282  0.2168  0.1932  0.1963  0.2257  0.2288  0.2323
 1975 171    40   0.0960  0.0960  0.1120  0.0940  0.1030  0.1030  0.1020  0.1020  0.1020  0.2300  0.2300  0.2500  0.2200  0.2200  0.2200  0.2500  0.2500  0.2500  0.4400  0.4400  0.4400  0.4400  0.4400  0.4400  0.4400  0.4400  0.4400  1.2000  1.2000  1.2000  1.2000  1.2000  1.2000  1.2000  1.2000  1.2000  0.4826  0.2451  0.2288  0.2157  0.1924  0.1956  0.2249  0.2281  0.2317
 1975 172    41   0.0960  0.0960  0.1120  0.0940  0.1030  0.1030  0.1020  0.1020  0.1020  0.2300  0.2300  0.2500  0.2200  0.2200  0.2200  0.2500  0.2500  0.2500  0.4400  0.4400  0.4400  0.4400  0.4400  0.4400  0.4400  0.4400  0.4400  1.2000  1.2000  1.2000  1.2000  1.2000  1.2000  1.2000  1.2000  1.2000  0.4494  0.2572  0.2288  0.2140  0.1911  0.1945  0.2238  0.2272  0.2309
 1975 173    42   0.0960  0.0960  0.1120  0.0940  0.1030  0.1030  0.1020  0.1020  0.1020  0.2300  0.2300  0.2500  0.2200  0.2200  0.2200  0.2500  0.2500  0.2500  0.4400  0.4400  0.4400  0.4400  0.4400  0.4400  0.4400  0.4400  0.4400  1.2000  1.2000  1.2000  1.2000  1.2000  1.2000  1.2000  1.2000  1.2000  0.4169  0.2594  0.2287  0.2122  0.1899  0.1935  0.2228  0.2263  0.2302
 1975 174    43   0.0960  0.0960  0.1120  0.0940  0.1030  0.1030  0.1020  0.1020  0.1020  0.2300  0.2300  0.2500  0.2200  0.2200  0.2200  0.2500  0.2500  0.2500  0.4400  0.4400  0.4400  0.4400  0.4400  0.4400  0.4400  0.4400  0.4400  1.2000  1.2000  1.2000  1.2000  1.2000  1.2000  1.2000  1.2000  1.2000  0.3740  0.2553  0.2271  0.2098  0.1883  0.1921  0.2214  0.2251  0.2292
 1975 175    44   0.0960  0.0960  0.1120  0.0940  0.1030  0.1030  0.1020  0.1020  0.1020  0.2300  0.2300  0.2500  0.2200  0.2200  0.2200  0.2500  0.2500  0.2500  0.4400  0.4400  0.4400  0.4400  0.4400  0.4400  0.4400  0.4400  0.4400  1.2000  1.2000  1.2000  1.2000  1.2000  1.2000  1.2000  1.2000  1.2000  0.3319  0.2474  0.2240  0.2069  0.1865  0.1907  0.2199  0.2238  0.2281
 1975 176    45   0.0960  0.0960  0.1120  0.0940  0.1030  0.1030  0.1020  0.1020  0.1020  0.2300  0.2300  0.2500  0.2200  0.2200  0.2200  0.2500  0.2500  0.2500  0.4400  0.4400  0.4400  0.4400  0.4400  0.4400  0.4400  0.4400  0.4400  1.2000  1.2000  1.2000  1.2000  1.2000  1.2000  1.2000  1.2000  1.2000  0.4488  0.2509  0.2220  0.2048  0.1851  0.1896  0.2188  0.2229  0.2273
 1975 177    46   0.0960  0.0960  0.1120  0.0940  0.1030  0.1030  0.1020  0.1020  0.1020  0.2300  0.2300  0.2500  0.2200  0.2200  0.2200  0.2500  0.2500  0.2500  0.4400  0.4400  0.4400  0.4400  0.4400  0.4400  0.4400  0.4400  0.4400  1.2000  1.2000  1.2000  1.2000  1.2000  1.2000  1.2000  1.2000  1.2000  0.4758  0.2632  0.2224  0.2037  0.1844  0.1890  0.2182  0.2224  0.2269
 1975 178    47   0.0960  0.0960  0.1120  0.0940  0.1030  0.1030  0.1020  0.1020  0.1020  0.2300  0.2300  0.2500  0.2200  0.2200  0.2200  0.2500  0.2500  0.2500  0.4400  0.4400  0.4400  0.4400  0.4400  0.4400  0.4400  0.4400  0.4400  1.2000  1.2000  1.2000  1.2000  1.2000  1.2000  1.2000  1.2000  1.2000  0.4502  0.2673  0.2207  0.2015  0.1830  0.1881  0.2173  0.2215  0.2262
 1975 179    48   0.0960  0.0960  0.1120  0.0940  0.1030  0.1030  0.1020  0.1020  0.1020  0.2300  0.2300  0.2500  0.2200  0.2200  0.2200  0.2500  0.2500  0.2500  0.4400  0.4400  0.4400  0.4400  0.4400  0.4400  0.4400  0.4400  0.4400  1.2000  1.2000  1.2000  1.2000  1.2000  1.2000  1.2000  1.2000  1.2000  0.4169  0.2646  0.2178  0.1986  0.1813  0.1871  0.2162  0.2206  0.2255
 1975 180    49   0.0960  0.0960  0.1120  0.0940  0.1030  0.1030  0.1020  0.1020  0.1020  0.2300  0.2300  0.2500  0.2200  0.2200  0.2200  0.2500  0.2500  0.2500  0.4400  0.4400  0.4400  0.4400  0.4400  0.4400  0.4400  0.4400  0.4400  1.2000  1.2000  1.2000  1.2000  1.2000  1.2000  1.2000  1.2000  1.2000  0.3803  0.2592  0.2145  0.1957  0.1795  0.1860  0.2152  0.2197  0.2247
 1975 181    50   0.0960  0.0960  0.1120  0.0940  0.1030  0.1030  0.1020  0.1020  0.1020  0.2300  0.2300  0.2500  0.2200  0.2200  0.2200  0.2500  0.2500  0.2500  0.4400  0.4400  0.4400  0.4400  0.4400  0.4400  0.4400  0.4400  0.4400  1.2000  1.2000  1.2000  1.2000  1.2000  1.2000  1.2000  1.2000  1.2000  0.3452  0.2513  0.2102  0.1924  0.1774  0.1848  0.2140  0.2188  0.2239
 1975 182    51   0.0960  0.0960  0.1120  0.0940  0.1030  0.1030  0.1020  0.1020  0.1020  0.2300  0.2300  0.2500  0.2200  0.2200  0.2200  0.2500  0.2500  0.2500  0.4400  0.4400  0.4400  0.4400  0.4400  0.4400  0.4400  0.4400  0.4400  1.2000  1.2000  1.2000  1.2000  1.2000  1.2000  1.2000  1.2000  1.2000  0.3148  0.2427  0.2054  0.1889  0.1752  0.1837  0.2130  0.2179  0.2231
 1975 183    52   0.0960  0.0960  0.1120  0.0940  0.1030  0.1030  0.1020  0.1020  0.1020  0.2300  0.2300  0.2500  0.2200  0.2200  0.2200  0.2500  0.2500  0.2500  0.4400  0.4400  0.4400  0.4400  0.4400  0.4400  0.4400  0.4400  0.4400  1.2000  1.2000  1.2000  1.2000  1.2000  1.2000  1.2000  1.2000  1.2000  0.2864  0.2330  0.1995  0.1849  0.1728  0.1824  0.2119  0.2169  0.2223
 1975 184    53   0.0960  0.0960  0.1120  0.0940  0.1030  0.1030  0.1020  0.1020  0.1020  0.2300  0.2300  0.2500  0.2200  0.2200  0.2200  0.2500  0.2500  0.2500  0.4400  0.4400  0.4400  0.4400  0.4400  0.4400  0.4400  0.4400  0.4400  1.2000  1.2000  1.2000  1.2000  1.2000  1.2000  1.2000  1.2000  1.2000  0.2638  0.2244  0.1940  0.1812  0.1705  0.1813  0.2110  0.2161  0.2217
 1975 185    54   0.0960  0.0960  0.1120  0.0940  0.1030  0.1030  0.1020  0.1020  0.1020  0.2300  0.2300  0.2500  0.2200  0.2200  0.2200  0.2500  0.2500  0.2500  0.4400  0.4400  0.4400  0.4400  0.4400  0.4400  0.4400  0.4400  0.4400  1.2000  1.2000  1.2000  1.2000  1.2000  1.2000  1.2000  1.2000  1.2000  0.2403  0.2137  0.1865  0.1764  0.1675  0.1797  0.2099  0.2152  0.2209
 1975 186    55   0.0960  0.0960  0.1120  0.0940  0.1030  0.1030  0.1020  0.1020  0.1020  0.2300  0.2300  0.2500  0.2200  0.2200  0.2200  0.2500  0.2500  0.2500  0.4400  0.4400  0.4400  0.4400  0.4400  0.4400  0.4400  0.4400  0.4400  1.2000  1.2000  1.2000  1.2000  1.2000  1.2000  1.2000  1.2000  1.2000  0.2185  0.2030  0.1785  0.1712  0.1642  0.1780  0.2089  0.2143  0.2201
 1975 187    56   0.0960  0.0960  0.1120  0.0940  0.1030  0.1030  0.1020  0.1020  0.1020  0.2300  0.2300  0.2500  0.2200  0.2200  0.2200  0.2500  0.2500  0.2500  0.4400  0.4400  0.4400  0.4400  0.4400  0.4400  0.4400  0.4400  0.4400  1.2000  1.2000  1.2000  1.2000  1.2000  1.2000  1.2000  1.2000  1.2000  0.2075  0.1950  0.1712  0.1665  0.1616  0.1770  0.2088  0.2143  0.2201
 1975 188    57   0.0960  0.0960  0.1120  0.0940  0.1030  0.1030  0.1020  0.1020  0.1020  0.2300  0.2300  0.2500  0.2200  0.2200  0.2200  0.2500  0.2500  0.2500  0.4400  0.4400  0.4400  0.4400  0.4400  0.4400  0.4400  0.4400  0.4400  1.2000  1.2000  1.2000  1.2000  1.2000  1.2000  1.2000  1.2000  1.2000  0.1942  0.1891  0.1659  0.1631  0.1595  0.1761  0.2087  0.2143  0.2201
 1975 189    58   0.0960  0.0960  0.1120  0.0940  0.1030  0.1030  0.1020  0.1020  0.1020  0.2300  0.2300  0.2500  0.2200  0.2200  0.2200  0.2500  0.2500  0.2500  0.4400  0.4400  0.4400  0.4400  0.4400  0.4400  0.4400  0.4400  0.4400  1.2000  1.2000  1.2000  1.2000  1.2000  1.2000  1.2000  1.2000  1.2000  0.1752  0.1821  0.1604  0.1588  0.1569  0.1749  0.2085  0.2142  0.2201
 1975 190    59   0.0960  0.0960  0.1120  0.0940  0.1030  0.1030  0.1020  0.1020  0.1020  0.2300  0.2300  0.2500  0.2200  0.2200  0.2200  0.2500  0.2500  0.2500  0.4400  0.4400  0.4400  0.4400  0.4400  0.4400  0.4400  0.4400  0.4400  1.2000  1.2000  1.2000  1.2000  1.2000  1.2000  1.2000  1.2000  1.2000  0.1547  0.1737  0.1562  0.1534  0.1541  0.1733  0.2082  0.2142  0.2202
 1975 191    60   0.0960  0.0960  0.1120  0.0940  0.1030  0.1030  0.1020  0.1020  0.1020  0.2300  0.2300  0.2500  0.2200  0.2200  0.2200  0.2500  0.2500  0.2500  0.4400  0.4400  0.4400  0.4400  0.4400  0.4400  0.4400  0.4400  0.4400  1.2000  1.2000  1.2000  1.2000  1.2000  1.2000  1.2000  1.2000  1.2000  0.1339  0.1639  0.1529  0.1468  0.1514  0.1712  0.2078  0.2142  0.2202
 1975 192    61   0.0960  0.0960  0.1120  0.0940  0.1030  0.1030  0.1020  0.1020  0.1020  0.2300  0.2300  0.2500  0.2200  0.2200  0.2200  0.2500  0.2500  0.2500  0.4400  0.4400  0.4400  0.4400  0.4400  0.4400  0.4400  0.4400  0.4400  1.2000  1.2000  1.2000  1.2000  1.2000  1.2000  1.2000  1.2000  1.2000  0.1215  0.1521  0.1497  0.1393  0.1488  0.1684  0.2070  0.2142  0.2202
 1975 193    62   0.0960  0.0960  0.1120  0.0940  0.1030  0.1030  0.1020  0.1020  0.1020  0.2300  0.2300  0.2500  0.2200  0.2200  0.2200  0.2500  0.2500  0.2500  0.4400  0.4400  0.4400  0.4400  0.4400  0.4400  0.4400  0.4400  0.4400  1.2000  1.2000  1.2000  1.2000  1.2000  1.2000  1.2000  1.2000  1.2000  0.1117  0.1358  0.1464  0.1341  0.1457  0.1642  0.2058  0.2142  0.2202
 1975 194    63   0.0960  0.0960  0.1120  0.0940  0.1030  0.1030  0.1020  0.1020  0.1020  0.2300  0.2300  0.2500  0.2200  0.2200  0.2200  0.2500  0.2500  0.2500  0.4400  0.4400  0.4400  0.4400  0.4400  0.4400  0.4400  0.4400  0.4400  1.2000  1.2000  1.2000  1.2000  1.2000  1.2000  1.2000  1.2000  1.2000  0.1035  0.1293  0.1429  0.1297  0.1425  0.1582  0.2038  0.2142  0.2202
 1975 195    64   0.0960  0.0960  0.1120  0.0940  0.1030  0.1030  0.1020  0.1020  0.1020  0.2300  0.2300  0.2500  0.2200  0.2200  0.2200  0.2500  0.2500  0.2500  0.4400  0.4400  0.4400  0.4400  0.4400  0.4400  0.4400  0.4400  0.4400  1.2000  1.2000  1.2000  1.2000  1.2000  1.2000  1.2000  1.2000  1.2000  0.0964  0.1255  0.1403  0.1267  0.1400  0.1523  0.2016  0.2141  0.2202
 1975 196    65   0.0960  0.0960  0.1120  0.0940  0.1030  0.1030  0.1020  0.1020  0.1020  0.2300  0.2300  0.2500  0.2200  0.2200  0.2200  0.2500  0.2500  0.2500  0.4400  0.4400  0.4400  0.4400  0.4400  0.4400  0.4400  0.4400  0.4400  1.2000  1.2000  1.2000  1.2000  1.2000  1.2000  1.2000  1.2000  1.2000  0.0902  0.1227  0.1382  0.1244  0.1380  0.1487  0.1992  0.2140  0.2202
 1975 197    66   0.0960  0.0960  0.1120  0.0940  0.1030  0.1030  0.1020  0.1020  0.1020  0.2300  0.2300  0.2500  0.2200  0.2200  0.2200  0.2500  0.2500  0.2500  0.4400  0.4400  0.4400  0.4400  0.4400  0.4400  0.4400  0.4400  0.4400  1.2000  1.2000  1.2000  1.2000  1.2000  1.2000  1.2000  1.2000  1.2000  0.0996  0.1203  0.1364  0.1225  0.1363  0.1460  0.1966  0.2139  0.2202
 1975 198    67   0.0960  0.0960  0.1120  0.0940  0.1030  0.1030  0.1020  0.1020  0.1020  0.2300  0.2300  0.2500  0.2200  0.2200  0.2200  0.2500  0.2500  0.2500  0.4400  0.4400  0.4400  0.4400  0.4400  0.4400  0.4400  0.4400  0.4400  1.2000  1.2000  1.2000  1.2000  1.2000  1.2000  1.2000  1.2000  1.2000  0.1047  0.1184  0.1349  0.1209  0.1348  0.1439  0.1939  0.2138  0.2202
 1975 199    68   0.0960  0.0960  0.1120  0.0940  0.1030  0.1030  0.1020  0.1020  0.1020  0.2300  0.2300  0.2500  0.2200  0.2200  0.2200  0.2500  0.2500  0.2500  0.4400  0.4400  0.4400  0.4400  0.4400  0.4400  0.4400  0.4400  0.4400  1.2000  1.2000  1.2000  1.2000  1.2000  1.2000  1.2000  1.2000  1.2000  0.1024  0.1167  0.1335  0.1195  0.1334  0.1421  0.1911  0.2136  0.2203
 1975 200    69   0.0960  0.0960  0.1120  0.0940  0.1030  0.1030  0.1020  0.1020  0.1020  0.2300  0.2300  0.2500  0.2200  0.2200  0.2200  0.2500  0.2500  0.2500  0.4400  0.4400  0.4400  0.4400  0.4400  0.4400  0.4400  0.4400  0.4400  1.2000  1.2000  1.2000  1.2000  1.2000  1.2000  1.2000  1.2000  1.2000  0.0982  0.1151  0.1322  0.1182  0.1322  0.1405  0.1881  0.2134  0.2203
 1975 201    70   0.0960  0.0960  0.1120  0.0940  0.1030  0.1030  0.1020  0.1020  0.1020  0.2300  0.2300  0.2500  0.2200  0.2200  0.2200  0.2500  0.2500  0.2500  0.4400  0.4400  0.4400  0.4400  0.4400  0.4400  0.4400  0.4400  0.4400  1.2000  1.2000  1.2000  1.2000  1.2000  1.2000  1.2000  1.2000  1.2000  0.0935  0.1137  0.1311  0.1171  0.1312  0.1391  0.1850  0.2132  0.2203
 1975 202    71   0.0960  0.0960  0.1120  0.0940  0.1030  0.1030  0.1020  0.1020  0.1020  0.2300  0.2300  0.2500  0.2200  0.2200  0.2200  0.2500  0.2500  0.2500  0.4400  0.4400  0.4400  0.4400  0.4400  0.4400  0.4400  0.4400  0.4400  1.2000  1.2000  1.2000  1.2000  1.2000  1.2000  1.2000  1.2000  1.2000  0.0886  0.1124  0.1301  0.1161  0.1301  0.1378  0.1818  0.2129  0.2203
 1975 203    72   0.0960  0.0960  0.1120  0.0940  0.1030  0.1030  0.1020  0.1020  0.1020  0.2300  0.2300  0.2500  0.2200  0.2200  0.2200  0.2500  0.2500  0.2500  0.4400  0.4400  0.4400  0.4400  0.4400  0.4400  0.4400  0.4400  0.4400  1.2000  1.2000  1.2000  1.2000  1.2000  1.2000  1.2000  1.2000  1.2000  0.0838  0.1112  0.1291  0.1151  0.1292  0.1367  0.1785  0.2125  0.2203
 1975 204    73   0.0960  0.0960  0.1120  0.0940  0.1030  0.1030  0.1020  0.1020  0.1020  0.2300  0.2300  0.2500  0.2200  0.2200  0.2200  0.2500  0.2500  0.2500  0.4400  0.4400  0.4400  0.4400  0.4400  0.4400  0.4400  0.4400  0.4400  1.2000  1.2000  1.2000  1.2000  1.2000  1.2000  1.2000  1.2000  1.2000  0.0792  0.1101  0.1282  0.1142  0.1283  0.1356  0.1751  0.2121  0.2203
 1975 205    74   0.0960  0.0960  0.1120  0.0940  0.1030  0.1030  0.1020  0.1020  0.1020  0.2300  0.2300  0.2500  0.2200  0.2200  0.2200  0.2500  0.2500  0.2500  0.4400  0.4400  0.4400  0.4400  0.4400  0.4400  0.4400  0.4400  0.4400  1.2000  1.2000  1.2000  1.2000  1.2000  1.2000  1.2000  1.2000  1.2000  0.0750  0.1090  0.1274  0.1134  0.1275  0.1346  0.1715  0.2117  0.2203
 1975 206    75   0.0960  0.0960  0.1120  0.0940  0.1030  0.1030  0.1020  0.1020  0.1020  0.2300  0.2300  0.2500  0.2200  0.2200  0.2200  0.2500  0.2500  0.2500  0.4400  0.4400  0.4400  0.4400  0.4400  0.4400  0.4400  0.4400  0.4400  1.2000  1.2000  1.2000  1.2000  1.2000  1.2000  1.2000  1.2000  1.2000  0.0710  0.1080  0.1266  0.1126  0.1268  0.1337  0.1679  0.2112  0.2203
 1975 207    76   0.0960  0.0960  0.1120  0.0940  0.1030  0.1030  0.1020  0.1020  0.1020  0.2300  0.2300  0.2500  0.2200  0.2200  0.2200  0.2500  0.2500  0.2500  0.4400  0.4400  0.4400  0.4400  0.4400  0.4400  0.4400  0.4400  0.4400  1.2000  1.2000  1.2000  1.2000  1.2000  1.2000  1.2000  1.2000  1.2000  0.0673  0.1071  0.1258  0.1119  0.1260  0.1329  0.1642  0.2106  0.2203
 1975 208    77   0.0960  0.0960  0.1120  0.0940  0.1030  0.1030  0.1020  0.1020  0.1020  0.2300  0.2300  0.2500  0.2200  0.2200  0.2200  0.2500  0.2500  0.2500  0.4400  0.4400  0.4400  0.4400  0.4400  0.4400  0.4400  0.4400  0.4400  1.2000  1.2000  1.2000  1.2000  1.2000  1.2000  1.2000  1.2000  1.2000  0.0639  0.1062  0.1251  0.1113  0.1253  0.1321  0.1604  0.2101  0.2204
 1975 209    78   0.0960  0.0960  0.1120  0.0940  0.1030  0.1030  0.1020  0.1020  0.1020  0.2300  0.2300  0.2500  0.2200  0.2200  0.2200  0.2500  0.2500  0.2500  0.4400  0.4400  0.4400  0.4400  0.4400  0.4400  0.4400  0.4400  0.4400  1.2000  1.2000  1.2000  1.2000  1.2000  1.2000  1.2000  1.2000  1.2000  0.0607  0.1053  0.1244  0.1106  0.1247  0.1314  0.1566  0.2095  0.2204
 1975 210    79   0.0960  0.0960  0.1120  0.0940  0.1030  0.1030  0.1020  0.1020  0.1020  0.2300  0.2300  0.2500  0.2200  0.2200  0.2200  0.2500  0.2500  0.2500  0.4400  0.4400  0.4400  0.4400  0.4400  0.4400  0.4400  0.4400  0.4400  1.2000  1.2000  1.2000  1.2000  1.2000  1.2000  1.2000  1.2000  1.2000  0.0833  0.1045  0.1238  0.1100  0.1241  0.1307  0.1534  0.2089  0.2204
 1975 211    80   0.0960  0.0960  0.1120  0.0940  0.1030  0.1030  0.1020  0.1020  0.1020  0.2300  0.2300  0.2500  0.2200  0.2200  0.2200  0.2500  0.2500  0.2500  0.4400  0.4400  0.4400  0.4400  0.4400  0.4400  0.4400  0.4400  0.4400  1.2000  1.2000  1.2000  1.2000  1.2000  1.2000  1.2000  1.2000  1.2000  0.1005  0.1037  0.1232  0.1095  0.1235  0.1300  0.1510  0.2083  0.2204
 1975 212    81   0.0960  0.0960  0.1120  0.0940  0.1030  0.1030  0.1020  0.1020  0.1020  0.2300  0.2300  0.2500  0.2200  0.2200  0.2200  0.2500  0.2500  0.2500  0.4400  0.4400  0.4400  0.4400  0.4400  0.4400  0.4400  0.4400  0.4400  1.2000  1.2000  1.2000  1.2000  1.2000  1.2000  1.2000  1.2000  1.2000  0.4163  0.1189  0.1220  0.1085  0.1226  0.1291  0.1489  0.2072  0.2199
 1975 213    82   0.0960  0.0960  0.1120  0.0940  0.1030  0.1030  0.1020  0.1020  0.1020  0.2300  0.2300  0.2500  0.2200  0.2200  0.2200  0.2500  0.2500  0.2500  0.4400  0.4400  0.4400  0.4400  0.4400  0.4400  0.4400  0.4400  0.4400  1.2000  1.2000  1.2000  1.2000  1.2000  1.2000  1.2000  1.2000  1.2000  0.4475  0.1438  0.1212  0.1078  0.1220  0.1285  0.1479  0.2064  0.2194
 1975 214    83   0.0960  0.0960  0.1120  0.0940  0.1030  0.1030  0.1020  0.1020  0.1020  0.2300  0.2300  0.2500  0.2200  0.2200  0.2200  0.2500  0.2500  0.2500  0.4400  0.4400  0.4400  0.4400  0.4400  0.4400  0.4400  0.4400  0.4400  1.2000  1.2000  1.2000  1.2000  1.2000  1.2000  1.2000  1.2000  1.2000  0.4190  0.1501  0.1200  0.1068  0.1210  0.1276  0.1466  0.2052  0.2186
 1975 215    84   0.0960  0.0960  0.1120  0.0940  0.1030  0.1030  0.1020  0.1020  0.1020  0.2300  0.2300  0.2500  0.2200  0.2200  0.2200  0.2500  0.2500  0.2500  0.4400  0.4400  0.4400  0.4400  0.4400  0.4400  0.4400  0.4400  0.4400  1.2000  1.2000  1.2000  1.2000  1.2000  1.2000  1.2000  1.2000  1.2000  0.3959  0.1504  0.1192  0.1061  0.1204  0.1270  0.1458  0.2044  0.2180
 1975 216    85   0.0960  0.0960  0.1120  0.0940  0.1030  0.1030  0.1020  0.1020  0.1020  0.2300  0.2300  0.2500  0.2200  0.2200  0.2200  0.2500  0.2500  0.2500  0.4400  0.4400  0.4400  0.4400  0.4400  0.4400  0.4400  0.4400  0.4400  1.2000  1.2000  1.2000  1.2000  1.2000  1.2000  1.2000  1.2000  1.2000  0.3685  0.1471  0.1184  0.1053  0.1196  0.1263  0.1450  0.2035  0.2173
 1975 217    86   0.0960  0.0960  0.1120  0.0940  0.1030  0.1030  0.1020  0.1020  0.1020  0.2300  0.2300  0.2500  0.2200  0.2200  0.2200  0.2500  0.2500  0.2500  0.4400  0.4400  0.4400  0.4400  0.4400  0.4400  0.4400  0.4400  0.4400  1.2000  1.2000  1.2000  1.2000  1.2000  1.2000  1.2000  1.2000  1.2000  0.3225  0.1379  0.1167  0.1039  0.1184  0.1251  0.1435  0.2019  0.2161
 1975 218    87   0.0960  0.0960  0.1120  0.0940  0.1030  0.1030  0.1020  0.1020  0.1020  0.2300  0.2300  0.2500  0.2200  0.2200  0.2200  0.2500  0.2500  0.2500  0.4400  0.4400  0.4400  0.4400  0.4400  0.4400  0.4400  0.4400  0.4400  1.2000  1.2000  1.2000  1.2000  1.2000  1.2000  1.2000  1.2000  1.2000  0.2754  0.1303  0.1147  0.1025  0.1170  0.1238  0.1420  0.2002  0.2148
 1975 219    88   0.0960  0.0960  0.1120  0.0940  0.1030  0.1030  0.1020  0.1020  0.1020  0.2300  0.2300  0.2500  0.2200  0.2200  0.2200  0.2500  0.2500  0.2500  0.4400  0.4400  0.4400  0.4400  0.4400  0.4400  0.4400  0.4400  0.4400  1.2000  1.2000  1.2000  1.2000  1.2000  1.2000  1.2000  1.2000  1.2000  0.3279  0.1294  0.1140  0.1018  0.1164  0.1233  0.1413  0.1994  0.2142
 1975 220    89   0.0960  0.0960  0.1120  0.0940  0.1030  0.1030  0.1020  0.1020  0.1020  0.2300  0.2300  0.2500  0.2200  0.2200  0.2200  0.2500  0.2500  0.2500  0.4400  0.4400  0.4400  0.4400  0.4400  0.4400  0.4400  0.4400  0.4400  1.2000  1.2000  1.2000  1.2000  1.2000  1.2000  1.2000  1.2000  1.2000  0.3190  0.1279  0.1125  0.1007  0.1153  0.1223  0.1401  0.1980  0.2131
 1975 221    90   0.0960  0.0960  0.1120  0.0940  0.1030  0.1030  0.1020  0.1020  0.1020  0.2300  0.2300  0.2500  0.2200  0.2200  0.2200  0.2500  0.2500  0.2500  0.4400  0.4400  0.4400  0.4400  0.4400  0.4400  0.4400  0.4400  0.4400  1.2000  1.2000  1.2000  1.2000  1.2000  1.2000  1.2000  1.2000  1.2000  0.2849  0.1252  0.1109  0.0994  0.1142  0.1212  0.1389  0.1965  0.2119
 1975 222    91   0.0960  0.0960  0.1120  0.0940  0.1030  0.1030  0.1020  0.1020  0.1020  0.2300  0.2300  0.2500  0.2200  0.2200  0.2200  0.2500  0.2500  0.2500  0.4400  0.4400  0.4400  0.4400  0.4400  0.4400  0.4400  0.4400  0.4400  1.2000  1.2000  1.2000  1.2000  1.2000  1.2000  1.2000  1.2000  1.2000  0.2515  0.1220  0.1093  0.0982  0.1131  0.1202  0.1378  0.1950  0.2107
 1975 223    92   0.0960  0.0960  0.1120  0.0940  0.1030  0.1030  0.1020  0.1020  0.1020  0.2300  0.2300  0.2500  0.2200  0.2200  0.2200  0.2500  0.2500  0.2500  0.4400  0.4400  0.4400  0.4400  0.4400  0.4400  0.4400  0.4400  0.4400  1.2000  1.2000  1.2000  1.2000  1.2000  1.2000  1.2000  1.2000  1.2000  0.2268  0.1185  0.1077  0.0971  0.1120  0.1192  0.1366  0.1936  0.2095
 1975 224    93   0.0960  0.0960  0.1120  0.0940  0.1030  0.1030  0.1020  0.1020  0.1020  0.2300  0.2300  0.2500  0.2200  0.2200  0.2200  0.2500  0.2500  0.2500  0.4400  0.4400  0.4400  0.4400  0.4400  0.4400  0.4400  0.4400  0.4400  1.2000  1.2000  1.2000  1.2000  1.2000  1.2000  1.2000  1.2000  1.2000  0.2076  0.1183  0.1077  0.0970  0.1119  0.1191  0.1366  0.1935  0.2095
 1975 225    94   0.0960  0.0960  0.1120  0.0940  0.1030  0.1030  0.1020  0.1020  0.1020  0.2300  0.2300  0.2500  0.2200  0.2200  0.2200  0.2500  0.2500  0.2500  0.4400  0.4400  0.4400  0.4400  0.4400  0.4400  0.4400  0.4400  0.4400  1.2000  1.2000  1.2000  1.2000  1.2000  1.2000  1.2000  1.2000  1.2000  0.1902  0.1180  0.1078  0.0970  0.1119  0.1191  0.1365  0.1934  0.2096
 1975 226    95   0.0960  0.0960  0.1120  0.0940  0.1030  0.1030  0.1020  0.1020  0.1020  0.2300  0.2300  0.2500  0.2200  0.2200  0.2200  0.2500  0.2500  0.2500  0.4400  0.4400  0.4400  0.4400  0.4400  0.4400  0.4400  0.4400  0.4400  1.2000  1.2000  1.2000  1.2000  1.2000  1.2000  1.2000  1.2000  1.2000  0.1752  0.1177  0.1079  0.0969  0.1119  0.1191  0.1365  0.1934  0.2096
 1975 227    96   0.0960  0.0960  0.1120  0.0940  0.1030  0.1030  0.1020  0.1020  0.1020  0.2300  0.2300  0.2500  0.2200  0.2200  0.2200  0.2500  0.2500  0.2500  0.4400  0.4400  0.4400  0.4400  0.4400  0.4400  0.4400  0.4400  0.4400  1.2000  1.2000  1.2000  1.2000  1.2000  1.2000  1.2000  1.2000  1.2000  0.1617  0.1174  0.1080  0.0969  0.1119  0.1190  0.1365  0.1934  0.2096
 1975 228    97   0.0960  0.0960  0.1120  0.0940  0.1030  0.1030  0.1020  0.1020  0.1020  0.2300  0.2300  0.2500  0.2200  0.2200  0.2200  0.2500  0.2500  0.2500  0.4400  0.4400  0.4400  0.4400  0.4400  0.4400  0.4400  0.4400  0.4400  1.2000  1.2000  1.2000  1.2000  1.2000  1.2000  1.2000  1.2000  1.2000  0.1494  0.1170  0.1080  0.0969  0.1119  0.1190  0.1365  0.1934  0.2096
 1975 229    98   0.0960  0.0960  0.1120  0.0940  0.1030  0.1030  0.1020  0.1020  0.1020  0.2300  0.2300  0.2500  0.2200  0.2200  0.2200  0.2500  0.2500  0.2500  0.4400  0.4400  0.4400  0.4400  0.4400  0.4400  0.4400  0.4400  0.4400  1.2000  1.2000  1.2000  1.2000  1.2000  1.2000  1.2000  1.2000  1.2000  0.1622  0.1166  0.1081  0.0969  0.1118  0.1190  0.1364  0.1934  0.2096
 1975 230    99   0.0960  0.0960  0.1120  0.0940  0.1030  0.1030  0.1020  0.1020  0.1020  0.2300  0.2300  0.2500  0.2200  0.2200  0.2200  0.2500  0.2500  0.2500  0.4400  0.4400  0.4400  0.4400  0.4400  0.4400  0.4400  0.4400  0.4400  1.2000  1.2000  1.2000  1.2000  1.2000  1.2000  1.2000  1.2000  1.2000  0.1658  0.1164  0.1082  0.0968  0.1118  0.1190  0.1364  0.1933  0.2096
 1975 231   100   0.0960  0.0960  0.1120  0.0940  0.1030  0.1030  0.1020  0.1020  0.1020  0.2300  0.2300  0.2500  0.2200  0.2200  0.2200  0.2500  0.2500  0.2500  0.4400  0.4400  0.4400  0.4400  0.4400  0.4400  0.4400  0.4400  0.4400  1.2000  1.2000  1.2000  1.2000  1.2000  1.2000  1.2000  1.2000  1.2000  0.2374  0.1178  0.1082  0.0968  0.1118  0.1190  0.1364  0.1933  0.2096
 1975 232   101   0.0960  0.0960  0.1120  0.0940  0.1030  0.1030  0.1020  0.1020  0.1020  0.2300  0.2300  0.2500  0.2200  0.2200  0.2200  0.2500  0.2500  0.2500  0.4400  0.4400  0.4400  0.4400  0.4400  0.4400  0.4400  0.4400  0.4400  1.2000  1.2000  1.2000  1.2000  1.2000  1.2000  1.2000  1.2000  1.2000  0.2944  0.1208  0.1067  0.0957  0.1108  0.1180  0.1354  0.1921  0.2085
 1975 233   102   0.0960  0.0960  0.1120  0.0940  0.1030  0.1030  0.1020  0.1020  0.1020  0.2300  0.2300  0.2500  0.2200  0.2200  0.2200  0.2500  0.2500  0.2500  0.4400  0.4400  0.4400  0.4400  0.4400  0.4400  0.4400  0.4400  0.4400  1.2000  1.2000  1.2000  1.2000  1.2000  1.2000  1.2000  1.2000  1.2000  0.5331  0.1586  0.1053  0.0944  0.1096  0.1169  0.1343  0.1905  0.2071

*DSSAT Cropping System Model Ver. 4.8.5.021 -my_coup_branch  AUG 28, 2025 15:17:39
!                    0-5    5-15   15-30   30-45   45-60   60-75   75-90  90-120 120-150     0-5    5-15   15-30   30-45   45-60   60-75   75-90  90-120 120-150     0-5    5-15   15-30   30-45   45-60   60-75   75-90  90-120 120-150     0-5    5-15   15-30   30-45   45-60   60-75   75-90  90-120 120-150     0-5    5-15   15-30   30-45   45-60   60-75   75-90  90-120 120-150
@YEAR DOY   DAS     LL1D    LL2D    LL3D    LL4D    LL5D    LL6D    LL7D    LL8D    LL9D   DUL1D   DUL2D   DUL3D   DUL4D   DUL5D   DUL6D   DUL7D   DUL8D   DUL9D   SAT1D   SAT2D   SAT3D   SAT4D   SAT5D   SAT6D   SAT7D   SAT8D   SAT9D    BD1D    BD2D    BD3D    BD4D    BD5D    BD6D    BD7D    BD8D    BD9D    SW1D    SW2D    SW3D    SW4D    SW5D    SW6D    SW7D    SW8D    SW9D
 1975 132     1   0.0960  0.0960  0.1120  0.0940  0.1030  0.1030  0.1020  0.1020  0.1020  0.2300  0.2300  0.2500  0.2200  0.2200  0.2200  0.2500  0.2500  0.2500  0.4400  0.4400  0.4400  0.4400  0.4400  0.4400  0.4400  0.4400  0.4400  1.2000  1.2000  1.2000  1.2000  1.2000  1.2000  1.2000  1.2000  1.2000  0.2259  0.2240  0.2488  0.2198  0.2183  0.2186  0.2486  0.2488  0.2490
 1975 133     2   0.0960  0.0960  0.1120  0.0940  0.1030  0.1030  0.1020  0.1020  0.1020  0.2300  0.2300  0.2500  0.2200  0.2200  0.2200  0.2500  0.2500  0.2500  0.4400  0.4400  0.4400  0.4400  0.4400  0.4400  0.4400  0.4400  0.4400  1.2000  1.2000  1.2000  1.2000  1.2000  1.2000  1.2000  1.2000  1.2000  0.2491  0.2202  0.2476  0.2196  0.2168  0.2173  0.2473  0.2477  0.2481
 1975 134     3   0.0960  0.0960  0.1120  0.0940  0.1030  0.1030  0.1020  0.1020  0.1020  0.2300  0.2300  0.2500  0.2200  0.2200  0.2200  0.2500  0.2500  0.2500  0.4400  0.4400  0.4400  0.4400  0.4400  0.4400  0.4400  0.4400  0.4400  1.2000  1.2000  1.2000  1.2000  1.2000  1.2000  1.2000  1.2000  1.2000  0.2413  0.2158  0.2455  0.2187  0.2149  0.2156  0.2456  0.2463  0.2470
 1975 135     4   0.0960  0.0960  0.1120  0.0940  0.1030  0.1030  0.1020  0.1020  0.1020  0.2300  0.2300  0.2500  0.2200  0.2200  0.2200  0.2500  0.2500  0.2500  0.4400  0.4400  0.4400  0.4400  0.4400  0.4400  0.4400  0.4400  0.4400  1.2000  1.2000  1.2000  1.2000  1.2000  1.2000  1.2000  1.2000  1.2000  0.2242  0.2114  0.2437  0.2180  0.2131  0.2142  0.2442  0.2451  0.2460
 1975 136     5   0.0960  0.0960  0.1120  0.0940  0.1030  0.1030  0.1020  0.1020  0.1020  0.2300  0.2300  0.2500  0.2200  0.2200  0.2200  0.2500  0.2500  0.2500  0.4400  0.4400  0.4400  0.4400  0.4400  0.4400  0.4400  0.4400  0.4400  1.2000  1.2000  1.2000  1.2000  1.2000  1.2000  1.2000  1.2000  1.2000  0.2038  0.2108  0.2451  0.2194  0.2131  0.2141  0.2441  0.2451  0.2460
 1975 137     6   0.0960  0.0960  0.1120  0.0940  0.1030  0.1030  0.1020  0.1020  0.1020  0.2300  0.2300  0.2500  0.2200  0.2200  0.2200  0.2500  0.2500  0.2500  0.4400  0.4400  0.4400  0.4400  0.4400  0.4400  0.4400  0.4400  0.4400  1.2000  1.2000  1.2000  1.2000  1.2000  1.2000  1.2000  1.2000  1.2000  0.1849  0.2048  0.2428  0.2184  0.2113  0.2126  0.2426  0.2438  0.2449
 1975 138     7   0.0960  0.0960  0.1120  0.0940  0.1030  0.1030  0.1020  0.1020  0.1020  0.2300  0.2300  0.2500  0.2200  0.2200  0.2200  0.2500  0.2500  0.2500  0.4400  0.4400  0.4400  0.4400  0.4400  0.4400  0.4400  0.4400  0.4400  1.2000  1.2000  1.2000  1.2000  1.2000  1.2000  1.2000  1.2000  1.2000  0.1671  0.2032  0.2440  0.2196  0.2113  0.2126  0.2426  0.2437  0.2449
 1975 139     8   0.0960  0.0960  0.1120  0.0940  0.1030  0.1030  0.1020  0.1020  0.1020  0.2300  0.2300  0.2500  0.2200  0.2200  0.2200  0.2500  0.2500  0.2500  0.4400  0.4400  0.4400  0.4400  0.4400  0.4400  0.4400  0.4400  0.4400  1.2000  1.2000  1.2000  1.2000  1.2000  1.2000  1.2000  1.2000  1.2000  0.1544  0.1981  0.2425  0.2190  0.2099  0.2114  0.2414  0.2428  0.2441
 1975 140     9   0.0960  0.0960  0.1120  0.0940  0.1030  0.1030  0.1020  0.1020  0.1020  0.2300  0.2300  0.2500  0.2200  0.2200  0.2200  0.2500  0.2500  0.2500  0.4400  0.4400  0.4400  0.4400  0.4400  0.4400  0.4400  0.4400  0.4400  1.2000  1.2000  1.2000  1.2000  1.2000  1.2000  1.2000  1.2000  1.2000  0.1399  0.1961  0.2435  0.2201  0.2099  0.2114  0.2414  0.2427  0.2441
 1975 141    10   0.0960  0.0960  0.1120  0.0940  0.1030  0.1030  0.1020  0.1020  0.1020  0.2300  0.2300  0.2500  0.2200  0.2200  0.2200  0.2500  0.2500  0.2500  0.4400  0.4400  0.4400  0.4400  0.4400  0.4400  0.4400  0.4400  0.4400  1.2000  1.2000  1.2000  1.2000  1.2000  1.2000  1.2000  1.2000  1.2000  0.1351  0.1930  0.2423  0.2192  0.2079  0.2094  0.2390  0.2404  0.2418
 1975 142    11   0.0960  0.0960  0.1120  0.0940  0.1030  0.1030  0.1020  0.1020  0.1020  0.2300  0.2300  0.2500  0.2200  0.2200  0.2200  0.2500  0.2500  0.2500  0.4400  0.4400  0.4400  0.4400  0.4400  0.4400  0.4400  0.4400  0.4400  1.2000  1.2000  1.2000  1.2000  1.2000  1.2000  1.2000  1.2000  1.2000  0.1227  0.1909  0.2431  0.2202  0.2079  0.2093  0.2390  0.2404  0.2418
 1975 143    12   0.0960  0.0960  0.1120  0.0940  0.1030  0.1030  0.1020  0.1020  0.1020  0.2300  0.2300  0.2500  0.2200  0.2200  0.2200  0.2500  0.2500  0.2500  0.4400  0.4400  0.4400  0.4400  0.4400  0.4400  0.4400  0.4400  0.4400  1.2000  1.2000  1.2000  1.2000  1.2000  1.2000  1.2000  1.2000  1.2000  0.1185  0.1879  0.2418  0.2191  0.2059  0.2074  0.2367  0.2381  0.2395
 1975 144    13   0.0960  0.0960  0.1120  0.0940  0.1030  0.1030  0.1020  0.1020  0.1020  0.2300  0.2300  0.2500  0.2200  0.2200  0.2200  0.2500  0.2500  0.2500  0.4400  0.4400  0.4400  0.4400  0.4400  0.4400  0.4400  0.4400  0.4400  1.2000  1.2000  1.2000  1.2000  1.2000  1.2000  1.2000  1.2000  1.2000  0.1227  0.1860  0.2426  0.2200  0.2059  0.2073  0.2367  0.2381  0.2395
 1975 145    14   0.0960  0.0960  0.1120  0.0940  0.1030  0.1030  0.1020  0.1020  0.1020  0.2300  0.2300  0.2500  0.2200  0.2200  0.2200  0.2500  0.2500  0.2500  0.4400  0.4400  0.4400  0.4400  0.4400  0.4400  0.4400  0.4400  0.4400  1.2000  1.2000  1.2000  1.2000  1.2000  1.2000  1.2000  1.2000  1.2000  0.1551  0.1824  0.2408  0.2193  0.2046  0.2063  0.2356  0.2372  0.2388
 1975 146    15   0.0960  0.0960  0.1120  0.0940  0.1030  0.1030  0.1020  0.1020  0.1020  0.2300  0.2300  0.2500  0.2200  0.2200  0.2200  0.2500  0.2500  0.2500  0.4400  0.4400  0.4400  0.4400  0.4400  0.4400  0.4400  0.4400  0.4400  1.2000  1.2000  1.2000  1.2000  1.2000  1.2000  1.2000  1.2000  1.2000  0.1682  0.1828  0.2414  0.2201  0.2046  0.2062  0.2356  0.2371  0.2388
 1975 147    16   0.0960  0.0960  0.1120  0.0940  0.1030  0.1030  0.1020  0.1020  0.1020  0.2300  0.2300  0.2500  0.2200  0.2200  0.2200  0.2500  0.2500  0.2500  0.4400  0.4400  0.4400  0.4400  0.4400  0.4400  0.4400  0.4400  0.4400  1.2000  1.2000  1.2000  1.2000  1.2000  1.2000  1.2000  1.2000  1.2000  0.1736  0.1797  0.2386  0.2186  0.2029  0.2048  0.2341  0.2359  0.2377
 1975 148    17   0.0960  0.0960  0.1120  0.0940  0.1030  0.1030  0.1020  0.1020  0.1020  0.2300  0.2300  0.2500  0.2200  0.2200  0.2200  0.2500  0.2500  0.2500  0.4400  0.4400  0.4400  0.4400  0.4400  0.4400  0.4400  0.4400  0.4400  1.2000  1.2000  1.2000  1.2000  1.2000  1.2000  1.2000  1.2000  1.2000  0.1676  0.1807  0.2392  0.2193  0.2029  0.2047  0.2341  0.2359  0.2377
 1975 149    18   0.0960  0.0960  0.1120  0.0940  0.1030  0.1030  0.1020  0.1020  0.1020  0.2300  0.2300  0.2500  0.2200  0.2200  0.2200  0.2500  0.2500  0.2500  0.4400  0.4400  0.4400  0.4400  0.4400  0.4400  0.4400  0.4400  0.4400  1.2000  1.2000  1.2000  1.2000  1.2000  1.2000  1.2000  1.2000  1.2000  0.1561  0.1812  0.2398  0.2200  0.2028  0.2047  0.2340  0.2359  0.2377
 1975 150    19   0.0960  0.0960  0.1120  0.0940  0.1030  0.1030  0.1020  0.1020  0.1020  0.2300  0.2300  0.2500  0.2200  0.2200  0.2200  0.2500  0.2500  0.2500  0.4400  0.4400  0.4400  0.4400  0.4400  0.4400  0.4400  0.4400  0.4400  1.2000  1.2000  1.2000  1.2000  1.2000  1.2000  1.2000  1.2000  1.2000  0.1431  0.1762  0.2362  0.2179  0.2008  0.2029  0.2323  0.2343  0.2365
 1975 151    20   0.0960  0.0960  0.1120  0.0940  0.1030  0.1030  0.1020  0.1020  0.1020  0.2300  0.2300  0.2500  0.2200  0.2200  0.2200  0.2500  0.2500  0.2500  0.4400  0.4400  0.4400  0.4400  0.4400  0.4400  0.4400  0.4400  0.4400  1.2000  1.2000  1.2000  1.2000  1.2000  1.2000  1.2000  1.2000  1.2000  0.1379  0.1760  0.2368  0.2185  0.2007  0.2029  0.2322  0.2343  0.2365
 1975 152    21   0.0960  0.0960  0.1120  0.0940  0.1030  0.1030  0.1020  0.1020  0.1020  0.2300  0.2300  0.2500  0.2200  0.2200  0.2200  0.2500  0.2500  0.2500  0.4400  0.4400  0.4400  0.4400  0.4400  0.4400  0.4400  0.4400  0.4400  1.2000  1.2000  1.2000  1.2000  1.2000  1.2000  1.2000  1.2000  1.2000  0.1333  0.1756  0.2374  0.2191  0.2007  0.2028  0.2322  0.2343  0.2365
 1975 153    22   0.0960  0.0960  0.1120  0.0940  0.1030  0.1030  0.1020  0.1020  0.1020  0.2300  0.2300  0.2500  0.2200  0.2200  0.2200  0.2500  0.2500  0.2500  0.4400  0.4400  0.4400  0.4400  0.4400  0.4400  0.4400  0.4400  0.4400  1.2000  1.2000  1.2000  1.2000  1.2000  1.2000  1.2000  1.2000  1.2000  0.1255  0.1750  0.2379  0.2198  0.2007  0.2028  0.2322  0.2343  0.2365
 1975 154    23   0.0960  0.0960  0.1120  0.0940  0.1030  0.1030  0.1020  0.1020  0.1020  0.2300  0.2300  0.2500  0.2200  0.2200  0.2200  0.2500  0.2500  0.2500  0.4400  0.4400  0.4400  0.4400  0.4400  0.4400  0.4400  0.4400  0.4400  1.2000  1.2000  1.2000  1.2000  1.2000  1.2000  1.2000  1.2000  1.2000  0.1957  0.1754  0.2370  0.2193  0.1999  0.2021  0.2315  0.2337  0.2361
 1975 155    24   0.0960  0.0960  0.1120  0.0940  0.1030  0.1030  0.1020  0.1020  0.1020  0.2300  0.2300  0.2500  0.2200  0.2200  0.2200  0.2500  0.2500  0.2500  0.4400  0.4400  0.4400  0.4400  0.4400  0.4400  0.4400  0.4400  0.4400  1.2000  1.2000  1.2000  1.2000  1.2000  1.2000  1.2000  1.2000  1.2000  0.2069  0.1800  0.2377  0.2199  0.1999  0.2021  0.2315  0.2337  0.2361
 1975 156    25   0.0960  0.0960  0.1120  0.0940  0.1030  0.1030  0.1020  0.1020  0.1020  0.2300  0.2300  0.2500  0.2200  0.2200  0.2200  0.2500  0.2500  0.2500  0.4400  0.4400  0.4400  0.4400  0.4400  0.4400  0.4400  0.4400  0.4400  1.2000  1.2000  1.2000  1.2000  1.2000  1.2000  1.2000  1.2000  1.2000  0.2166  0.1793  0.2342  0.2176  0.1979  0.2004  0.2298  0.2322  0.2348
 1975 157    26   0.0960  0.0960  0.1120  0.0940  0.1030  0.1030  0.1020  0.1020  0.1020  0.2300  0.2300  0.2500  0.2200  0.2200  0.2200  0.2500  0.2500  0.2500  0.4400  0.4400  0.4400  0.4400  0.4400  0.4400  0.4400  0.4400  0.4400  1.2000  1.2000  1.2000  1.2000  1.2000  1.2000  1.2000  1.2000  1.2000  0.2274  0.1791  0.2310  0.2154  0.1959  0.1987  0.2281  0.2308  0.2336
 1975 158    27   0.0960  0.0960  0.1120  0.0940  0.1030  0.1030  0.1020  0.1020  0.1020  0.2300  0.2300  0.2500  0.2200  0.2200  0.2200  0.2500  0.2500  0.2500  0.4400  0.4400  0.4400  0.4400  0.4400  0.4400  0.4400  0.4400  0.4400  1.2000  1.2000  1.2000  1.2000  1.2000  1.2000  1.2000  1.2000  1.2000  0.2214  0.1797  0.2289  0.2140  0.1946  0.1975  0.2269  0.2297  0.2328
 1975 159    28   0.0960  0.0960  0.1120  0.0940  0.1030  0.1030  0.1020  0.1020  0.1020  0.2300  0.2300  0.2500  0.2200  0.2200  0.2200  0.2500  0.2500  0.2500  0.4400  0.4400  0.4400  0.4400  0.4400  0.4400  0.4400  0.4400  0.4400  1.2000  1.2000  1.2000  1.2000  1.2000  1.2000  1.2000  1.2000  1.2000  0.2039  0.1818  0.2295  0.2144  0.1945  0.1975  0.2269  0.2297  0.2328
 1975 160    29   0.0960  0.0960  0.1120  0.0940  0.1030  0.1030  0.1020  0.1020  0.1020  0.2300  0.2300  0.2500  0.2200  0.2200  0.2200  0.2500  0.2500  0.2500  0.4400  0.4400  0.4400  0.4400  0.4400  0.4400  0.4400  0.4400  0.4400  1.2000  1.2000  1.2000  1.2000  1.2000  1.2000  1.2000  1.2000  1.2000  0.1845  0.1823  0.2301  0.2148  0.1945  0.1975  0.2268  0.2297  0.2328
 1975 161    30   0.0960  0.0960  0.1120  0.0940  0.1030  0.1030  0.1020  0.1020  0.1020  0.2300  0.2300  0.2500  0.2200  0.2200  0.2200  0.2500  0.2500  0.2500  0.4400  0.4400  0.4400  0.4400  0.4400  0.4400  0.4400  0.4400  0.4400  1.2000  1.2000  1.2000  1.2000  1.2000  1.2000  1.2000  1.2000  1.2000  0.1655  0.1817  0.2305  0.2153  0.1945  0.1975  0.2268  0.2297  0.2328
 1975 162    31   0.0960  0.0960  0.1120  0.0940  0.1030  0.1030  0.1020  0.1020  0.1020  0.2300  0.2300  0.2500  0.2200  0.2200  0.2200  0.2500  0.2500  0.2500  0.4400  0.4400  0.4400  0.4400  0.4400  0.4400  0.4400  0.4400  0.4400  1.2000  1.2000  1.2000  1.2000  1.2000  1.2000  1.2000  1.2000  1.2000  0.1476  0.1799  0.2306  0.2157  0.1945  0.1974  0.2268  0.2297  0.2328
 1975 163    32   0.0960  0.0960  0.1120  0.0940  0.1030  0.1030  0.1020  0.1020  0.1020  0.2300  0.2300  0.2500  0.2200  0.2200  0.2200  0.2500  0.2500  0.2500  0.4400  0.4400  0.4400  0.4400  0.4400  0.4400  0.4400  0.4400  0.4400  1.2000  1.2000  1.2000  1.2000  1.2000  1.2000  1.2000  1.2000  1.2000  0.1331  0.1783  0.2309  0.2161  0.1944  0.1974  0.2268  0.2297  0.2328
 1975 164    33   0.0960  0.0960  0.1120  0.0940  0.1030  0.1030  0.1020  0.1020  0.1020  0.2300  0.2300  0.2500  0.2200  0.2200  0.2200  0.2500  0.2500  0.2500  0.4400  0.4400  0.4400  0.4400  0.4400  0.4400  0.4400  0.4400  0.4400  1.2000  1.2000  1.2000  1.2000  1.2000  1.2000  1.2000  1.2000  1.2000  0.1282  0.1763  0.2309  0.2165  0.1944  0.1974  0.2267  0.2296  0.2328
 1975 165    34   0.0960  0.0960  0.1120  0.0940  0.1030  0.1030  0.1020  0.1020  0.1020  0.2300  0.2300  0.2500  0.2200  0.2200  0.2200  0.2500  0.2500  0.2500  0.4400  0.4400  0.4400  0.4400  0.4400  0.4400  0.4400  0.4400  0.4400  1.2000  1.2000  1.2000  1.2000  1.2000  1.2000  1.2000  1.2000  1.2000  0.1523  0.1750  0.2308  0.2169  0.1944  0.1973  0.2267  0.2296  0.2329
 1975 166    35   0.0960  0.0960  0.1120  0.0940  0.1030  0.1030  0.1020  0.1020  0.1020  0.2300  0.2300  0.2500  0.2200  0.2200  0.2200  0.2500  0.2500  0.2500  0.4400  0.4400  0.4400  0.4400  0.4400  0.4400  0.4400  0.4400  0.4400  1.2000  1.2000  1.2000  1.2000  1.2000  1.2000  1.2000  1.2000  1.2000  0.1543  0.1745  0.2307  0.2172  0.1944  0.1973  0.2267  0.2296  0.2329
 1975 167    36   0.0960  0.0960  0.1120  0.0940  0.1030  0.1030  0.1020  0.1020  0.1020  0.2300  0.2300  0.2500  0.2200  0.2200  0.2200  0.2500  0.2500  0.2500  0.4400  0.4400  0.4400  0.4400  0.4400  0.4400  0.4400  0.4400  0.4400  1.2000  1.2000  1.2000  1.2000  1.2000  1.2000  1.2000  1.2000  1.2000  0.1443  0.1737  0.2305  0.2176  0.1943  0.1973  0.2267  0.2296  0.2329
 1975 168    37   0.0960  0.0960  0.1120  0.0940  0.1030  0.1030  0.1020  0.1020  0.1020  0.2300  0.2300  0.2500  0.2200  0.2200  0.2200  0.2500  0.2500  0.2500  0.4400  0.4400  0.4400  0.4400  0.4400  0.4400  0.4400  0.4400  0.4400  1.2000  1.2000  1.2000  1.2000  1.2000  1.2000  1.2000  1.2000  1.2000  0.1561  0.1732  0.2303  0.2178  0.1943  0.1973  0.2266  0.2296  0.2329
 1975 169    38   0.0960  0.0960  0.1120  0.0940  0.1030  0.1030  0.1020  0.1020  0.1020  0.2300  0.2300  0.2500  0.2200  0.2200  0.2200  0.2500  0.2500  0.2500  0.4400  0.4400  0.4400  0.4400  0.4400  0.4400  0.4400  0.4400  0.4400  1.2000  1.2000  1.2000  1.2000  1.2000  1.2000  1.2000  1.2000  1.2000  0.1667  0.1734  0.2298  0.2180  0.1943  0.1972  0.2266  0.2296  0.2329
 1975 170    39   0.0960  0.0960  0.1120  0.0940  0.1030  0.1030  0.1020  0.1020  0.1020  0.2300  0.2300  0.2500  0.2200  0.2200  0.2200  0.2500  0.2500  0.2500  0.4400  0.4400  0.4400  0.4400  0.4400  0.4400  0.4400  0.4400  0.4400  1.2000  1.2000  1.2000  1.2000  1.2000  1.2000  1.2000  1.2000  1.2000  0.4625  0.2091  0.2282  0.2168  0.1932  0.1963  0.2257  0.2288  0.2323
 1975 171    40   0.0960  0.0960  0.1120  0.0940  0.1030  0.1030  0.1020  0.1020  0.1020  0.2300  0.2300  0.2500  0.2200  0.2200  0.2200  0.2500  0.2500  0.2500  0.4400  0.4400  0.4400  0.4400  0.4400  0.4400  0.4400  0.4400  0.4400  1.2000  1.2000  1.2000  1.2000  1.2000  1.2000  1.2000  1.2000  1.2000  0.4826  0.2451  0.2288  0.2157  0.1924  0.1956  0.2249  0.2281  0.2317
 1975 172    41   0.0960  0.0960  0.1120  0.0940  0.1030  0.1030  0.1020  0.1020  0.1020  0.2300  0.2300  0.2500  0.2200  0.2200  0.2200  0.2500  0.2500  0.2500  0.4400  0.4400  0.4400  0.4400  0.4400  0.4400  0.4400  0.4400  0.4400  1.2000  1.2000  1.2000  1.2000  1.2000  1.2000  1.2000  1.2000  1.2000  0.4495  0.2572  0.2288  0.2140  0.1911  0.1945  0.2238  0.2272  0.2309
 1975 173    42   0.0960  0.0960  0.1120  0.0940  0.1030  0.1030  0.1020  0.1020  0.1020  0.2300  0.2300  0.2500  0.2200  0.2200  0.2200  0.2500  0.2500  0.2500  0.4400  0.4400  0.4400  0.4400  0.4400  0.4400  0.4400  0.4400  0.4400  1.2000  1.2000  1.2000  1.2000  1.2000  1.2000  1.2000  1.2000  1.2000  0.4170  0.2594  0.2287  0.2122  0.1899  0.1935  0.2228  0.2263  0.2302
 1975 174    43   0.0960  0.0960  0.1120  0.0940  0.1030  0.1030  0.1020  0.1020  0.1020  0.2300  0.2300  0.2500  0.2200  0.2200  0.2200  0.2500  0.2500  0.2500  0.4400  0.4400  0.4400  0.4400  0.4400  0.4400  0.4400  0.4400  0.4400  1.2000  1.2000  1.2000  1.2000  1.2000  1.2000  1.2000  1.2000  1.2000  0.3740  0.2553  0.2271  0.2098  0.1883  0.1921  0.2214  0.2251  0.2292
 1975 175    44   0.0960  0.0960  0.1120  0.0940  0.1030  0.1030  0.1020  0.1020  0.1020  0.2300  0.2300  0.2500  0.2200  0.2200  0.2200  0.2500  0.2500  0.2500  0.4400  0.4400  0.4400  0.4400  0.4400  0.4400  0.4400  0.4400  0.4400  1.2000  1.2000  1.2000  1.2000  1.2000  1.2000  1.2000  1.2000  1.2000  0.3320  0.2473  0.2240  0.2069  0.1865  0.1907  0.2199  0.2238  0.2281
 1975 176    45   0.0960  0.0960  0.1120  0.0940  0.1030  0.1030  0.1020  0.1020  0.1020  0.2300  0.2300  0.2500  0.2200  0.2200  0.2200  0.2500  0.2500  0.2500  0.4400  0.4400  0.4400  0.4400  0.4400  0.4400  0.4400  0.4400  0.4400  1.2000  1.2000  1.2000  1.2000  1.2000  1.2000  1.2000  1.2000  1.2000  0.4489  0.2508  0.2220  0.2048  0.1851  0.1896  0.2188  0.2229  0.2273
 1975 177    46   0.0960  0.0960  0.1120  0.0940  0.1030  0.1030  0.1020  0.1020  0.1020  0.2300  0.2300  0.2500  0.2200  0.2200  0.2200  0.2500  0.2500  0.2500  0.4400  0.4400  0.4400  0.4400  0.4400  0.4400  0.4400  0.4400  0.4400  1.2000  1.2000  1.2000  1.2000  1.2000  1.2000  1.2000  1.2000  1.2000  0.4759  0.2632  0.2224  0.2037  0.1844  0.1890  0.2182  0.2224  0.2269
 1975 178    47   0.0960  0.0960  0.1120  0.0940  0.1030  0.1030  0.1020  0.1020  0.1020  0.2300  0.2300  0.2500  0.2200  0.2200  0.2200  0.2500  0.2500  0.2500  0.4400  0.4400  0.4400  0.4400  0.4400  0.4400  0.4400  0.4400  0.4400  1.2000  1.2000  1.2000  1.2000  1.2000  1.2000  1.2000  1.2000  1.2000  0.4503  0.2673  0.2207  0.2015  0.1830  0.1881  0.2173  0.2215  0.2262
 1975 179    48   0.0960  0.0960  0.1120  0.0940  0.1030  0.1030  0.1020  0.1020  0.1020  0.2300  0.2300  0.2500  0.2200  0.2200  0.2200  0.2500  0.2500  0.2500  0.4400  0.4400  0.4400  0.4400  0.4400  0.4400  0.4400  0.4400  0.4400  1.2000  1.2000  1.2000  1.2000  1.2000  1.2000  1.2000  1.2000  1.2000  0.4170  0.2646  0.2178  0.1986  0.1813  0.1871  0.2162  0.2206  0.2255
 1975 180    49   0.0960  0.0960  0.1120  0.0940  0.1030  0.1030  0.1020  0.1020  0.1020  0.2300  0.2300  0.2500  0.2200  0.2200  0.2200  0.2500  0.2500  0.2500  0.4400  0.4400  0.4400  0.4400  0.4400  0.4400  0.4400  0.4400  0.4400  1.2000  1.2000  1.2000  1.2000  1.2000  1.2000  1.2000  1.2000  1.2000  0.3804  0.2592  0.2145  0.1957  0.1795  0.1860  0.2152  0.2197  0.2247
 1975 181    50   0.0960  0.0960  0.1120  0.0940  0.1030  0.1030  0.1020  0.1020  0.1020  0.2300  0.2300  0.2500  0.2200  0.2200  0.2200  0.2500  0.2500  0.2500  0.4400  0.4400  0.4400  0.4400  0.4400  0.4400  0.4400  0.4400  0.4400  1.2000  1.2000  1.2000  1.2000  1.2000  1.2000  1.2000  1.2000  1.2000  0.3453  0.2512  0.2101  0.1924  0.1774  0.1848  0.2141  0.2188  0.2239
 1975 182    51   0.0960  0.0960  0.1120  0.0940  0.1030  0.1030  0.1020  0.1020  0.1020  0.2300  0.2300  0.2500  0.2200  0.2200  0.2200  0.2500  0.2500  0.2500  0.4400  0.4400  0.4400  0.4400  0.4400  0.4400  0.4400  0.4400  0.4400  1.2000  1.2000  1.2000  1.2000  1.2000  1.2000  1.2000  1.2000  1.2000  0.3149  0.2427  0.2054  0.1889  0.1752  0.1837  0.2130  0.2179  0.2231
 1975 183    52   0.0960  0.0960  0.1120  0.0940  0.1030  0.1030  0.1020  0.1020  0.1020  0.2300  0.2300  0.2500  0.2200  0.2200  0.2200  0.2500  0.2500  0.2500  0.4400  0.4400  0.4400  0.4400  0.4400  0.4400  0.4400  0.4400  0.4400  1.2000  1.2000  1.2000  1.2000  1.2000  1.2000  1.2000  1.2000  1.2000  0.2865  0.2330  0.1995  0.1849  0.1728  0.1824  0.2119  0.2169  0.2223
 1975 184    53   0.0960  0.0960  0.1120  0.0940  0.1030  0.1030  0.1020  0.1020  0.1020  0.2300  0.2300  0.2500  0.2200  0.2200  0.2200  0.2500  0.2500  0.2500  0.4400  0.4400  0.4400  0.4400  0.4400  0.4400  0.4400  0.4400  0.4400  1.2000  1.2000  1.2000  1.2000  1.2000  1.2000  1.2000  1.2000  1.2000  0.2639  0.2243  0.1940  0.1812  0.1705  0.1813  0.2110  0.2161  0.2217
 1975 185    54   0.0960  0.0960  0.1120  0.0940  0.1030  0.1030  0.1020  0.1020  0.1020  0.2300  0.2300  0.2500  0.2200  0.2200  0.2200  0.2500  0.2500  0.2500  0.4400  0.4400  0.4400  0.4400  0.4400  0.4400  0.4400  0.4400  0.4400  1.2000  1.2000  1.2000  1.2000  1.2000  1.2000  1.2000  1.2000  1.2000  0.2404  0.2137  0.1865  0.1764  0.1675  0.1797  0.2099  0.2152  0.2209
 1975 186    55   0.0960  0.0960  0.1120  0.0940  0.1030  0.1030  0.1020  0.1020  0.1020  0.2300  0.2300  0.2500  0.2200  0.2200  0.2200  0.2500  0.2500  0.2500  0.4400  0.4400  0.4400  0.4400  0.4400  0.4400  0.4400  0.4400  0.4400  1.2000  1.2000  1.2000  1.2000  1.2000  1.2000  1.2000  1.2000  1.2000  0.2186  0.2030  0.1785  0.1711  0.1643  0.1780  0.2089  0.2143  0.2201
 1975 187    56   0.0960  0.0960  0.1120  0.0940  0.1030  0.1030  0.1020  0.1020  0.1020  0.2300  0.2300  0.2500  0.2200  0.2200  0.2200  0.2500  0.2500  0.2500  0.4400  0.4400  0.4400  0.4400  0.4400  0.4400  0.4400  0.4400  0.4400  1.2000  1.2000  1.2000  1.2000  1.2000  1.2000  1.2000  1.2000  1.2000  0.2076  0.1950  0.1711  0.1665  0.1616  0.1770  0.2088  0.2143  0.2201
 1975 188    57   0.0960  0.0960  0.1120  0.0940  0.1030  0.1030  0.1020  0.1020  0.1020  0.2300  0.2300  0.2500  0.2200  0.2200  0.2200  0.2500  0.2500  0.2500  0.4400  0.4400  0.4400  0.4400  0.4400  0.4400  0.4400  0.4400  0.4400  1.2000  1.2000  1.2000  1.2000  1.2000  1.2000  1.2000  1.2000  1.2000  0.1943  0.1891  0.1658  0.1631  0.1595  0.1761  0.2087  0.2143  0.2201
 1975 189    58   0.0960  0.0960  0.1120  0.0940  0.1030  0.1030  0.1020  0.1020  0.1020  0.2300  0.2300  0.2500  0.2200  0.2200  0.2200  0.2500  0.2500  0.2500  0.4400  0.4400  0.4400  0.4400  0.4400  0.4400  0.4400  0.4400  0.4400  1.2000  1.2000  1.2000  1.2000  1.2000  1.2000  1.2000  1.2000  1.2000  0.1753  0.1821  0.1603  0.1587  0.1569  0.1749  0.2085  0.2143  0.2202
 1975 190    59   0.0960  0.0960  0.1120  0.0940  0.1030  0.1030  0.1020  0.1020  0.1020  0.2300  0.2300  0.2500  0.2200  0.2200  0.2200  0.2500  0.2500  0.2500  0.4400  0.4400  0.4400  0.4400  0.4400  0.4400  0.4400  0.4400  0.4400  1.2000  1.2000  1.2000  1.2000  1.2000  1.2000  1.2000  1.2000  1.2000  0.1547  0.1737  0.1562  0.1533  0.1541  0.1733  0.2082  0.2142  0.2202
 1975 191    60   0.0960  0.0960  0.1120  0.0940  0.1030  0.1030  0.1020  0.1020  0.1020  0.2300  0.2300  0.2500  0.2200  0.2200  0.2200  0.2500  0.2500  0.2500  0.4400  0.4400  0.4400  0.4400  0.4400  0.4400  0.4400  0.4400  0.4400  1.2000  1.2000  1.2000  1.2000  1.2000  1.2000  1.2000  1.2000  1.2000  0.1340  0.1639  0.1528  0.1468  0.1514  0.1712  0.2078  0.2142  0.2202
 1975 192    61   0.0960  0.0960  0.1120  0.0940  0.1030  0.1030  0.1020  0.1020  0.1020  0.2300  0.2300  0.2500  0.2200  0.2200  0.2200  0.2500  0.2500  0.2500  0.4400  0.4400  0.4400  0.4400  0.4400  0.4400  0.4400  0.4400  0.4400  1.2000  1.2000  1.2000  1.2000  1.2000  1.2000  1.2000  1.2000  1.2000  0.1215  0.1520  0.1497  0.1392  0.1487  0.1684  0.2070  0.2142  0.2202
 1975 193    62   0.0960  0.0960  0.1120  0.0940  0.1030  0.1030  0.1020  0.1020  0.1020  0.2300  0.2300  0.2500  0.2200  0.2200  0.2200  0.2500  0.2500  0.2500  0.4400  0.4400  0.4400  0.4400  0.4400  0.4400  0.4400  0.4400  0.4400  1.2000  1.2000  1.2000  1.2000  1.2000  1.2000  1.2000  1.2000  1.2000  0.1117  0.1357  0.1464  0.1340  0.1457  0.1642  0.2058  0.2142  0.2202
 1975 194    63   0.0960  0.0960  0.1120  0.0940  0.1030  0.1030  0.1020  0.1020  0.1020  0.2300  0.2300  0.2500  0.2200  0.2200  0.2200  0.2500  0.2500  0.2500  0.4400  0.4400  0.4400  0.4400  0.4400  0.4400  0.4400  0.4400  0.4400  1.2000  1.2000  1.2000  1.2000  1.2000  1.2000  1.2000  1.2000  1.2000  0.1035  0.1293  0.1429  0.1296  0.1425  0.1582  0.2038  0.2142  0.2202
 1975 195    64   0.0960  0.0960  0.1120  0.0940  0.1030  0.1030  0.1020  0.1020  0.1020  0.2300  0.2300  0.2500  0.2200  0.2200  0.2200  0.2500  0.2500  0.2500  0.4400  0.4400  0.4400  0.4400  0.4400  0.4400  0.4400  0.4400  0.4400  1.2000  1.2000  1.2000  1.2000  1.2000  1.2000  1.2000  1.2000  1.2000  0.0964  0.1255  0.1403  0.1267  0.1400  0.1523  0.2016  0.2141  0.2202
 1975 196    65   0.0960  0.0960  0.1120  0.0940  0.1030  0.1030  0.1020  0.1020  0.1020  0.2300  0.2300  0.2500  0.2200  0.2200  0.2200  0.2500  0.2500  0.2500  0.4400  0.4400  0.4400  0.4400  0.4400  0.4400  0.4400  0.4400  0.4400  1.2000  1.2000  1.2000  1.2000  1.2000  1.2000  1.2000  1.2000  1.2000  0.0902  0.1226  0.1382  0.1244  0.1380  0.1487  0.1992  0.2141  0.2202
 1975 197    66   0.0960  0.0960  0.1120  0.0940  0.1030  0.1030  0.1020  0.1020  0.1020  0.2300  0.2300  0.2500  0.2200  0.2200  0.2200  0.2500  0.2500  0.2500  0.4400  0.4400  0.4400  0.4400  0.4400  0.4400  0.4400  0.4400  0.4400  1.2000  1.2000  1.2000  1.2000  1.2000  1.2000  1.2000  1.2000  1.2000  0.0996  0.1203  0.1364  0.1225  0.1363  0.1460  0.1966  0.2139  0.2202
 1975 198    67   0.0960  0.0960  0.1120  0.0940  0.1030  0.1030  0.1020  0.1020  0.1020  0.2300  0.2300  0.2500  0.2200  0.2200  0.2200  0.2500  0.2500  0.2500  0.4400  0.4400  0.4400  0.4400  0.4400  0.4400  0.4400  0.4400  0.4400  1.2000  1.2000  1.2000  1.2000  1.2000  1.2000  1.2000  1.2000  1.2000  0.1046  0.1184  0.1348  0.1209  0.1348  0.1439  0.1939  0.2138  0.2203
 1975 199    68   0.0960  0.0960  0.1120  0.0940  0.1030  0.1030  0.1020  0.1020  0.1020  0.2300  0.2300  0.2500  0.2200  0.2200  0.2200  0.2500  0.2500  0.2500  0.4400  0.4400  0.4400  0.4400  0.4400  0.4400  0.4400  0.4400  0.4400  1.2000  1.2000  1.2000  1.2000  1.2000  1.2000  1.2000  1.2000  1.2000  0.1024  0.1166  0.1335  0.1194  0.1334  0.1421  0.1911  0.2136  0.2203
 1975 200    69   0.0960  0.0960  0.1120  0.0940  0.1030  0.1030  0.1020  0.1020  0.1020  0.2300  0.2300  0.2500  0.2200  0.2200  0.2200  0.2500  0.2500  0.2500  0.4400  0.4400  0.4400  0.4400  0.4400  0.4400  0.4400  0.4400  0.4400  1.2000  1.2000  1.2000  1.2000  1.2000  1.2000  1.2000  1.2000  1.2000  0.0982  0.1151  0.1322  0.1182  0.1322  0.1405  0.1881  0.2134  0.2203
 1975 201    70   0.0960  0.0960  0.1120  0.0940  0.1030  0.1030  0.1020  0.1020  0.1020  0.2300  0.2300  0.2500  0.2200  0.2200  0.2200  0.2500  0.2500  0.2500  0.4400  0.4400  0.4400  0.4400  0.4400  0.4400  0.4400  0.4400  0.4400  1.2000  1.2000  1.2000  1.2000  1.2000  1.2000  1.2000  1.2000  1.2000  0.0935  0.1137  0.1311  0.1171  0.1311  0.1391  0.1850  0.2132  0.2203
 1975 202    71   0.0960  0.0960  0.1120  0.0940  0.1030  0.1030  0.1020  0.1020  0.1020  0.2300  0.2300  0.2500  0.2200  0.2200  0.2200  0.2500  0.2500  0.2500  0.4400  0.4400  0.4400  0.4400  0.4400  0.4400  0.4400  0.4400  0.4400  1.2000  1.2000  1.2000  1.2000  1.2000  1.2000  1.2000  1.2000  1.2000  0.0886  0.1124  0.1301  0.1160  0.1301  0.1378  0.1818  0.2129  0.2203
 1975 203    72   0.0960  0.0960  0.1120  0.0940  0.1030  0.1030  0.1020  0.1020  0.1020  0.2300  0.2300  0.2500  0.2200  0.2200  0.2200  0.2500  0.2500  0.2500  0.4400  0.4400  0.4400  0.4400  0.4400  0.4400  0.4400  0.4400  0.4400  1.2000  1.2000  1.2000  1.2000  1.2000  1.2000  1.2000  1.2000  1.2000  0.0838  0.1112  0.1291  0.1151  0.1292  0.1367  0.1785  0.2125  0.2203
 1975 204    73   0.0960  0.0960  0.1120  0.0940  0.1030  0.1030  0.1020  0.1020  0.1020  0.2300  0.2300  0.2500  0.2200  0.2200  0.2200  0.2500  0.2500  0.2500  0.4400  0.4400  0.4400  0.4400  0.4400  0.4400  0.4400  0.4400  0.4400  1.2000  1.2000  1.2000  1.2000  1.2000  1.2000  1.2000  1.2000  1.2000  0.0792  0.1101  0.1282  0.1142  0.1283  0.1356  0.1750  0.2121  0.2203
 1975 205    74   0.0960  0.0960  0.1120  0.0940  0.1030  0.1030  0.1020  0.1020  0.1020  0.2300  0.2300  0.2500  0.2200  0.2200  0.2200  0.2500  0.2500  0.2500  0.4400  0.4400  0.4400  0.4400  0.4400  0.4400  0.4400  0.4400  0.4400  1.2000  1.2000  1.2000  1.2000  1.2000  1.2000  1.2000  1.2000  1.2000  0.0750  0.1090  0.1273  0.1134  0.1275  0.1346  0.1715  0.2117  0.2203
 1975 206    75   0.0960  0.0960  0.1120  0.0940  0.1030  0.1030  0.1020  0.1020  0.1020  0.2300  0.2300  0.2500  0.2200  0.2200  0.2200  0.2500  0.2500  0.2500  0.4400  0.4400  0.4400  0.4400  0.4400  0.4400  0.4400  0.4400  0.4400  1.2000  1.2000  1.2000  1.2000  1.2000  1.2000  1.2000  1.2000  1.2000  0.0710  0.1080  0.1265  0.1126  0.1267  0.1337  0.1678  0.2112  0.2203
 1975 207    76   0.0960  0.0960  0.1120  0.0940  0.1030  0.1030  0.1020  0.1020  0.1020  0.2300  0.2300  0.2500  0.2200  0.2200  0.2200  0.2500  0.2500  0.2500  0.4400  0.4400  0.4400  0.4400  0.4400  0.4400  0.4400  0.4400  0.4400  1.2000  1.2000  1.2000  1.2000  1.2000  1.2000  1.2000  1.2000  1.2000  0.0673  0.1071  0.1258  0.1119  0.1260  0.1329  0.1641  0.2106  0.2204
 1975 208    77   0.0960  0.0960  0.1120  0.0940  0.1030  0.1030  0.1020  0.1020  0.1020  0.2300  0.2300  0.2500  0.2200  0.2200  0.2200  0.2500  0.2500  0.2500  0.4400  0.4400  0.4400  0.4400  0.4400  0.4400  0.4400  0.4400  0.4400  1.2000  1.2000  1.2000  1.2000  1.2000  1.2000  1.2000  1.2000  1.2000  0.0639  0.1062  0.1251  0.1112  0.1253  0.1321  0.1604  0.2101  0.2204
 1975 209    78   0.0960  0.0960  0.1120  0.0940  0.1030  0.1030  0.1020  0.1020  0.1020  0.2300  0.2300  0.2500  0.2200  0.2200  0.2200  0.2500  0.2500  0.2500  0.4400  0.4400  0.4400  0.4400  0.4400  0.4400  0.4400  0.4400  0.4400  1.2000  1.2000  1.2000  1.2000  1.2000  1.2000  1.2000  1.2000  1.2000  0.0607  0.1053  0.1244  0.1106  0.1247  0.1314  0.1566  0.2095  0.2204
 1975 210    79   0.0960  0.0960  0.1120  0.0940  0.1030  0.1030  0.1020  0.1020  0.1020  0.2300  0.2300  0.2500  0.2200  0.2200  0.2200  0.2500  0.2500  0.2500  0.4400  0.4400  0.4400  0.4400  0.4400  0.4400  0.4400  0.4400  0.4400  1.2000  1.2000  1.2000  1.2000  1.2000  1.2000  1.2000  1.2000  1.2000  0.0833  0.1045  0.1238  0.1100  0.1241  0.1307  0.1534  0.2089  0.2204
 1975 211    80   0.0960  0.0960  0.1120  0.0940  0.1030  0.1030  0.1020  0.1020  0.1020  0.2300  0.2300  0.2500  0.2200  0.2200  0.2200  0.2500  0.2500  0.2500  0.4400  0.4400  0.4400  0.4400  0.4400  0.4400  0.4400  0.4400  0.4400  1.2000  1.2000  1.2000  1.2000  1.2000  1.2000  1.2000  1.2000  1.2000  0.1005  0.1037  0.1232  0.1094  0.1235  0.1300  0.1510  0.2083  0.2204
 1975 212    81   0.0960  0.0960  0.1120  0.0940  0.1030  0.1030  0.1020  0.1020  0.1020  0.2300  0.2300  0.2500  0.2200  0.2200  0.2200  0.2500  0.2500  0.2500  0.4400  0.4400  0.4400  0.4400  0.4400  0.4400  0.4400  0.4400  0.4400  1.2000  1.2000  1.2000  1.2000  1.2000  1.2000  1.2000  1.2000  1.2000  0.4163  0.1189  0.1219  0.1085  0.1226  0.1291  0.1489  0.2072  0.2199
 1975 213    82   0.0960  0.0960  0.1120  0.0940  0.1030  0.1030  0.1020  0.1020  0.1020  0.2300  0.2300  0.2500  0.2200  0.2200  0.2200  0.2500  0.2500  0.2500  0.4400  0.4400  0.4400  0.4400  0.4400  0.4400  0.4400  0.4400  0.4400  1.2000  1.2000  1.2000  1.2000  1.2000  1.2000  1.2000  1.2000  1.2000  0.4475  0.1437  0.1211  0.1078  0.1219  0.1285  0.1479  0.2064  0.2195
 1975 214    83   0.0960  0.0960  0.1120  0.0940  0.1030  0.1030  0.1020  0.1020  0.1020  0.2300  0.2300  0.2500  0.2200  0.2200  0.2200  0.2500  0.2500  0.2500  0.4400  0.4400  0.4400  0.4400  0.4400  0.4400  0.4400  0.4400  0.4400  1.2000  1.2000  1.2000  1.2000  1.2000  1.2000  1.2000  1.2000  1.2000  0.4190  0.1501  0.1199  0.1068  0.1210  0.1276  0.1466  0.2052  0.2186
 1975 215    84   0.0960  0.0960  0.1120  0.0940  0.1030  0.1030  0.1020  0.1020  0.1020  0.2300  0.2300  0.2500  0.2200  0.2200  0.2200  0.2500  0.2500  0.2500  0.4400  0.4400  0.4400  0.4400  0.4400  0.4400  0.4400  0.4400  0.4400  1.2000  1.2000  1.2000  1.2000  1.2000  1.2000  1.2000  1.2000  1.2000  0.3959  0.1504  0.1192  0.1061  0.1203  0.1269  0.1458  0.2044  0.2180
 1975 216    85   0.0960  0.0960  0.1120  0.0940  0.1030  0.1030  0.1020  0.1020  0.1020  0.2300  0.2300  0.2500  0.2200  0.2200  0.2200  0.2500  0.2500  0.2500  0.4400  0.4400  0.4400  0.4400  0.4400  0.4400  0.4400  0.4400  0.4400  1.2000  1.2000  1.2000  1.2000  1.2000  1.2000  1.2000  1.2000  1.2000  0.3685  0.1471  0.1184  0.1053  0.1196  0.1263  0.1449  0.2035  0.2173
 1975 217    86   0.0960  0.0960  0.1120  0.0940  0.1030  0.1030  0.1020  0.1020  0.1020  0.2300  0.2300  0.2500  0.2200  0.2200  0.2200  0.2500  0.2500  0.2500  0.4400  0.4400  0.4400  0.4400  0.4400  0.4400  0.4400  0.4400  0.4400  1.2000  1.2000  1.2000  1.2000  1.2000  1.2000  1.2000  1.2000  1.2000  0.3225  0.1379  0.1166  0.1039  0.1184  0.1251  0.1435  0.2019  0.2161
 1975 218    87   0.0960  0.0960  0.1120  0.0940  0.1030  0.1030  0.1020  0.1020  0.1020  0.2300  0.2300  0.2500  0.2200  0.2200  0.2200  0.2500  0.2500  0.2500  0.4400  0.4400  0.4400  0.4400  0.4400  0.4400  0.4400  0.4400  0.4400  1.2000  1.2000  1.2000  1.2000  1.2000  1.2000  1.2000  1.2000  1.2000  0.2754  0.1303  0.1147  0.1024  0.1170  0.1238  0.1419  0.2001  0.2148
 1975 219    88   0.0960  0.0960  0.1120  0.0940  0.1030  0.1030  0.1020  0.1020  0.1020  0.2300  0.2300  0.2500  0.2200  0.2200  0.2200  0.2500  0.2500  0.2500  0.4400  0.4400  0.4400  0.4400  0.4400  0.4400  0.4400  0.4400  0.4400  1.2000  1.2000  1.2000  1.2000  1.2000  1.2000  1.2000  1.2000  1.2000  0.3278  0.1294  0.1140  0.1018  0.1164  0.1233  0.1413  0.1994  0.2142
 1975 220    89   0.0960  0.0960  0.1120  0.0940  0.1030  0.1030  0.1020  0.1020  0.1020  0.2300  0.2300  0.2500  0.2200  0.2200  0.2200  0.2500  0.2500  0.2500  0.4400  0.4400  0.4400  0.4400  0.4400  0.4400  0.4400  0.4400  0.4400  1.2000  1.2000  1.2000  1.2000  1.2000  1.2000  1.2000  1.2000  1.2000  0.3189  0.1279  0.1124  0.1007  0.1153  0.1223  0.1401  0.1980  0.2131
 1975 221    90   0.0960  0.0960  0.1120  0.0940  0.1030  0.1030  0.1020  0.1020  0.1020  0.2300  0.2300  0.2500  0.2200  0.2200  0.2200  0.2500  0.2500  0.2500  0.4400  0.4400  0.4400  0.4400  0.4400  0.4400  0.4400  0.4400  0.4400  1.2000  1.2000  1.2000  1.2000  1.2000  1.2000  1.2000  1.2000  1.2000  0.2848  0.1252  0.1108  0.0994  0.1142  0.1212  0.1389  0.1965  0.2119
 1975 222    91   0.0960  0.0960  0.1120  0.0940  0.1030  0.1030  0.1020  0.1020  0.1020  0.2300  0.2300  0.2500  0.2200  0.2200  0.2200  0.2500  0.2500  0.2500  0.4400  0.4400  0.4400  0.4400  0.4400  0.4400  0.4400  0.4400  0.4400  1.2000  1.2000  1.2000  1.2000  1.2000  1.2000  1.2000  1.2000  1.2000  0.2514  0.1220  0.1092  0.0982  0.1131  0.1202  0.1377  0.1950  0.2107
 1975 223    92   0.0960  0.0960  0.1120  0.0940  0.1030  0.1030  0.1020  0.1020  0.1020  0.2300  0.2300  0.2500  0.2200  0.2200  0.2200  0.2500  0.2500  0.2500  0.4400  0.4400  0.4400  0.4400  0.4400  0.4400  0.4400  0.4400  0.4400  1.2000  1.2000  1.2000  1.2000  1.2000  1.2000  1.2000  1.2000  1.2000  0.2267  0.1185  0.1076  0.0970  0.1120  0.1191  0.1366  0.1936  0.2095
 1975 224    93   0.0960  0.0960  0.1120  0.0940  0.1030  0.1030  0.1020  0.1020  0.1020  0.2300  0.2300  0.2500  0.2200  0.2200  0.2200  0.2500  0.2500  0.2500  0.4400  0.4400  0.4400  0.4400  0.4400  0.4400  0.4400  0.4400  0.4400  1.2000  1.2000  1.2000  1.2000  1.2000  1.2000  1.2000  1.2000  1.2000  0.2075  0.1183  0.1077  0.0970  0.1119  0.1191  0.1365  0.1935  0.2096
 1975 225    94   0.0960  0.0960  0.1120  0.0940  0.1030  0.1030  0.1020  0.1020  0.1020  0.2300  0.2300  0.2500  0.2200  0.2200  0.2200  0.2500  0.2500  0.2500  0.4400  0.4400  0.4400  0.4400  0.4400  0.4400  0.4400  0.4400  0.4400  1.2000  1.2000  1.2000  1.2000  1.2000  1.2000  1.2000  1.2000  1.2000  0.1901  0.1180  0.1078  0.0970  0.1119  0.1191  0.1365  0.1934  0.2096
 1975 226    95   0.0960  0.0960  0.1120  0.0940  0.1030  0.1030  0.1020  0.1020  0.1020  0.2300  0.2300  0.2500  0.2200  0.2200  0.2200  0.2500  0.2500  0.2500  0.4400  0.4400  0.4400  0.4400  0.4400  0.4400  0.4400  0.4400  0.4400  1.2000  1.2000  1.2000  1.2000  1.2000  1.2000  1.2000  1.2000  1.2000  0.1751  0.1177  0.1079  0.0969  0.1119  0.1191  0.1365  0.1934  0.2096
 1975 227    96   0.0960  0.0960  0.1120  0.0940  0.1030  0.1030  0.1020  0.1020  0.1020  0.2300  0.2300  0.2500  0.2200  0.2200  0.2200  0.2500  0.2500  0.2500  0.4400  0.4400  0.4400  0.4400  0.4400  0.4400  0.4400  0.4400  0.4400  1.2000  1.2000  1.2000  1.2000  1.2000  1.2000  1.2000  1.2000  1.2000  0.1616  0.1173  0.1080  0.0969  0.1119  0.1190  0.1365  0.1934  0.2096
 1975 228    97   0.0960  0.0960  0.1120  0.0940  0.1030  0.1030  0.1020  0.1020  0.1020  0.2300  0.2300  0.2500  0.2200  0.2200  0.2200  0.2500  0.2500  0.2500  0.4400  0.4400  0.4400  0.4400  0.4400  0.4400  0.4400  0.4400  0.4400  1.2000  1.2000  1.2000  1.2000  1.2000  1.2000  1.2000  1.2000  1.2000  0.1493  0.1169  0.1080  0.0969  0.1118  0.1190  0.1364  0.1934  0.2096
 1975 229    98   0.0960  0.0960  0.1120  0.0940  0.1030  0.1030  0.1020  0.1020  0.1020  0.2300  0.2300  0.2500  0.2200  0.2200  0.2200  0.2500  0.2500  0.2500  0.4400  0.4400  0.4400  0.4400  0.4400  0.4400  0.4400  0.4400  0.4400  1.2000  1.2000  1.2000  1.2000  1.2000  1.2000  1.2000  1.2000  1.2000  0.1621  0.1166  0.1081  0.0968  0.1118  0.1190  0.1364  0.1933  0.2096
 1975 230    99   0.0960  0.0960  0.1120  0.0940  0.1030  0.1030  0.1020  0.1020  0.1020  0.2300  0.2300  0.2500  0.2200  0.2200  0.2200  0.2500  0.2500  0.2500  0.4400  0.4400  0.4400  0.4400  0.4400  0.4400  0.4400  0.4400  0.4400  1.2000  1.2000  1.2000  1.2000  1.2000  1.2000  1.2000  1.2000  1.2000  0.1658  0.1164  0.1081  0.0968  0.1118  0.1190  0.1364  0.1933  0.2096
 1975 231   100   0.0960  0.0960  0.1120  0.0940  0.1030  0.1030  0.1020  0.1020  0.1020  0.2300  0.2300  0.2500  0.2200  0.2200  0.2200  0.2500  0.2500  0.2500  0.4400  0.4400  0.4400  0.4400  0.4400  0.4400  0.4400  0.4400  0.4400  1.2000  1.2000  1.2000  1.2000  1.2000  1.2000  1.2000  1.2000  1.2000  0.2373  0.1178  0.1082  0.0968  0.1118  0.1190  0.1364  0.1933  0.2096
 1975 232   101   0.0960  0.0960  0.1120  0.0940  0.1030  0.1030  0.1020  0.1020  0.1020  0.2300  0.2300  0.2500  0.2200  0.2200  0.2200  0.2500  0.2500  0.2500  0.4400  0.4400  0.4400  0.4400  0.4400  0.4400  0.4400  0.4400  0.4400  1.2000  1.2000  1.2000  1.2000  1.2000  1.2000  1.2000  1.2000  1.2000  0.2944  0.1208  0.1067  0.0957  0.1108  0.1180  0.1354  0.1921  0.2085
 1975 233   102   0.0960  0.0960  0.1120  0.0940  0.1030  0.1030  0.1020  0.1020  0.1020  0.2300  0.2300  0.2500  0.2200  0.2200  0.2200  0.2500  0.2500  0.2500  0.4400  0.4400  0.4400  0.4400  0.4400  0.4400  0.4400  0.4400  0.4400  1.2000  1.2000  1.2000  1.2000  1.2000  1.2000  1.2000  1.2000  1.2000  0.5330  0.1586  0.1053  0.0944  0.1096  0.1169  0.1342  0.1905  0.2071

*DSSAT Cropping System Model Ver. 4.8.5.021 -my_coup_branch  AUG 29, 2025 11:38:40
!                    0-5    5-15   15-30   30-45   45-60   60-75   75-90  90-120 120-150     0-5    5-15   15-30   30-45   45-60   60-75   75-90  90-120 120-150     0-5    5-15   15-30   30-45   45-60   60-75   75-90  90-120 120-150     0-5    5-15   15-30   30-45   45-60   60-75   75-90  90-120 120-150     0-5    5-15   15-30   30-45   45-60   60-75   75-90  90-120 120-150
[...]
 1975 181    50   0.0960  0.0960  0.1120  0.0940  0.1030  0.1030  0.1020  0.1020  0.1020  0.2300  0.2300  0.2500  0.2200  0.2200  0.2200  0.2500  0.2500  0.2500  0.4400  0.4400  0.4400  0.4400  0.4400  0.4400  0.4400  0.4400  0.4400  1.2000  1.2000  1.2000  1.2000  1.2000  1.2000  1.2000  1.2000  1.2000  0.1103  0.1298  0.2016  0.2009  0.2129  0.2173  0.2477  0.2482  0.2487
 1975 182    51   0.0960  0.0960  0.1120  0.0940  0.1030  0.1030  0.1020  0.1020  0.1020  0.2300  0.2300  0.2500  0.2200  0.2200  0.2200  0.2500  0.2500  0.2500  0.4400  0.4400  0.4400  0.4400  0.4400  0.4400  0.4400  0.4400  0.4400  1.2000  1.2000  1.2000  1.2000  1.2000  1.2000  1.2000  1.2000  1.2000  0.1026  0.1282  0.1970  0.1982  0.2117  0.2171  0.2476  0.2482  0.2486
 1975 183    52   0.0960  0.0960  0.1120  0.0940  0.1030  0.1030  0.1020  0.1020  0.1020  0.2300  0.2300  0.2500  0.2200  0.2200  0.2200  0.2500  0.2500  0.2500  0.4400  0.4400  0.4400  0.4400  0.4400  0.4400  0.4400  0.4400  0.4400  1.2000  1.2000  1.2000  1.2000  1.2000  1.2000  1.2000  1.2000  1.2000  0.0957  0.1266  0.1917  0.1951  0.2100  0.2168  0.2476  0.2482  0.2486
 1975 184    53   0.0960  0.0960  0.1120  0.0940  0.1030  0.1030  0.1020  0.1020  0.1020  0.2300  0.2300  0.2500  0.2200  0.2200  0.2200  0.2500  0.2500  0.2500  0.4400  0.4400  0.4400  0.4400  0.4400  0.4400  0.4400  0.4400  0.4400  1.2000  1.2000  1.2000  1.2000  1.2000  1.2000  1.2000  1.2000  1.2000  0.0894  0.1252  0.1868  0.1921  0.2084  0.2164  0.2476  0.2482  0.2486
 1975 185    54   0.0960  0.0960  0.1120  0.0940  0.1030  0.1030  0.1020  0.1020  0.1020  0.2300  0.2300  0.2500  0.2200  0.2200  0.2200  0.2500  0.2500  0.2500  0.4400  0.4400  0.4400  0.4400  0.4400  0.4400  0.4400  0.4400  0.4400  1.2000  1.2000  1.2000  1.2000  1.2000  1.2000  1.2000  1.2000  1.2000  0.0844  0.1237  0.1803  0.1881  0.2062  0.2157  0.2476  0.2482  0.2486
 1975 186    55   0.0960  0.0960  0.1120  0.0940  0.1030  0.1030  0.1020  0.1020  0.1020  0.2300  0.2300  0.2500  0.2200  0.2200  0.2200  0.2500  0.2500  0.2500  0.4400  0.4400  0.4400  0.4400  0.4400  0.4400  0.4400  0.4400  0.4400  1.2000  1.2000  1.2000  1.2000  1.2000  1.2000  1.2000  1.2000  1.2000  0.0802  0.1223  0.1735  0.1838  0.2037  0.2148  0.2475  0.2482  0.2486
 1975 187    56   0.0960  0.0960  0.1120  0.0940  0.1030  0.1030  0.1020  0.1020  0.1020  0.2300  0.2300  0.2500  0.2200  0.2200  0.2200  0.2500  0.2500  0.2500  0.4400  0.4400  0.4400  0.4400  0.4400  0.4400  0.4400  0.4400  0.4400  1.2000  1.2000  1.2000  1.2000  1.2000  1.2000  1.2000  1.2000  1.2000  0.0967  0.1211  0.1654  0.1786  0.2006  0.2135  0.2475  0.2481  0.2486
 1975 188    57   0.0960  0.0960  0.1120  0.0940  0.1030  0.1030  0.1020  0.1020  0.1020  0.2300  0.2300  0.2500  0.2200  0.2200  0.2200  0.2500  0.2500  0.2500  0.4400  0.4400  0.4400  0.4400  0.4400  0.4400  0.4400  0.4400  0.4400  1.2000  1.2000  1.2000  1.2000  1.2000  1.2000  1.2000  1.2000  1.2000  0.0942  0.1208  0.1604  0.1744  0.1980  0.2123  0.2474  0.2481  0.2486
 1975 189    58   0.0960  0.0960  0.1120  0.0940  0.1030  0.1030  0.1020  0.1020  0.1020  0.2300  0.2300  0.2500  0.2200  0.2200  0.2200  0.2500  0.2500  0.2500  0.4400  0.4400  0.4400  0.4400  0.4400  0.4400  0.4400  0.4400  0.4400  1.2000  1.2000  1.2000  1.2000  1.2000  1.2000  1.2000  1.2000  1.2000  0.0888  0.1202  0.1562  0.1688  0.1945  0.2106  0.2472  0.2481  0.2486
 1975 190    59   0.0960  0.0960  0.1120  0.0940  0.1030  0.1030  0.1020  0.1020  0.1020  0.2300  0.2300  0.2500  0.2200  0.2200  0.2200  0.2500  0.2500  0.2500  0.4400  0.4400  0.4400  0.4400  0.4400  0.4400  0.4400  0.4400  0.4400  1.2000  1.2000  1.2000  1.2000  1.2000  1.2000  1.2000  1.2000  1.2000  0.0830  0.1194  0.1529  0.1621  0.1902  0.2083  0.2469  0.2481  0.2486
 1975 191    60   0.0960  0.0960  0.1120  0.0940  0.1030  0.1030  0.1020  0.1020  0.1020  0.2300  0.2300  0.2500  0.2200  0.2200  0.2200  0.2500  0.2500  0.2500  0.4400  0.4400  0.4400  0.4400  0.4400  0.4400  0.4400  0.4400  0.4400  1.2000  1.2000  1.2000  1.2000  1.2000  1.2000  1.2000  1.2000  1.2000  0.0774  0.1185  0.1500  0.1546  0.1852  0.2056  0.2464  0.2481  0.2486
 1975 192    61   0.0960  0.0960  0.1120  0.0940  0.1030  0.1030  0.1020  0.1020  0.1020  0.2300  0.2300  0.2500  0.2200  0.2200  0.2200  0.2500  0.2500  0.2500  0.4400  0.4400  0.4400  0.4400  0.4400  0.4400  0.4400  0.4400  0.4400  1.2000  1.2000  1.2000  1.2000  1.2000  1.2000  1.2000  1.2000  1.2000  0.0722  0.1176  0.1476  0.1465  0.1798  0.2025  0.2457  0.2481  0.2486
 1975 193    62   0.0960  0.0960  0.1120  0.0940  0.1030  0.1030  0.1020  0.1020  0.1020  0.2300  0.2300  0.2500  0.2200  0.2200  0.2200  0.2500  0.2500  0.2500  0.4400  0.4400  0.4400  0.4400  0.4400  0.4400  0.4400  0.4400  0.4400  1.2000  1.2000  1.2000  1.2000  1.2000  1.2000  1.2000  1.2000  1.2000  0.0675  0.1166  0.1456  0.1391  0.1739  0.1989  0.2449  0.2481  0.2486
 1975 194    63   0.0960  0.0960  0.1120  0.0940  0.1030  0.1030  0.1020  0.1020  0.1020  0.2300  0.2300  0.2500  0.2200  0.2200  0.2200  0.2500  0.2500  0.2500  0.4400  0.4400  0.4400  0.4400  0.4400  0.4400  0.4400  0.4400  0.4400  1.2000  1.2000  1.2000  1.2000  1.2000  1.2000  1.2000  1.2000  1.2000  0.0632  0.1155  0.1437  0.1353  0.1677  0.1950  0.2438  0.2481  0.2486
 1975 195    64   0.0960  0.0960  0.1120  0.0940  0.1030  0.1030  0.1020  0.1020  0.1020  0.2300  0.2300  0.2500  0.2200  0.2200  0.2200  0.2500  0.2500  0.2500  0.4400  0.4400  0.4400  0.4400  0.4400  0.4400  0.4400  0.4400  0.4400  1.2000  1.2000  1.2000  1.2000  1.2000  1.2000  1.2000  1.2000  1.2000  0.0593  0.1145  0.1421  0.1325  0.1612  0.1909  0.2426  0.2480  0.2486
 1975 196    65   0.0960  0.0960  0.1120  0.0940  0.1030  0.1030  0.1020  0.1020  0.1020  0.2300  0.2300  0.2500  0.2200  0.2200  0.2200  0.2500  0.2500  0.2500  0.4400  0.4400  0.4400  0.4400  0.4400  0.4400  0.4400  0.4400  0.4400  1.2000  1.2000  1.2000  1.2000  1.2000  1.2000  1.2000  1.2000  1.2000  0.0558  0.1136  0.1407  0.1304  0.1545  0.1866  0.2413  0.2480  0.2485
 1975 197    66   0.0960  0.0960  0.1120  0.0940  0.1030  0.1030  0.1020  0.1020  0.1020  0.2300  0.2300  0.2500  0.2200  0.2200  0.2200  0.2500  0.2500  0.2500  0.4400  0.4400  0.4400  0.4400  0.4400  0.4400  0.4400  0.4400  0.4400  1.2000  1.2000  1.2000  1.2000  1.2000  1.2000  1.2000  1.2000  1.2000  0.0752  0.1129  0.1394  0.1285  0.1499  0.1821  0.2398  0.2479  0.2485
 1975 198    67   0.0960  0.0960  0.1120  0.0940  0.1030  0.1030  0.1020  0.1020  0.1020  0.2300  0.2300  0.2500  0.2200  0.2200  0.2200  0.2500  0.2500  0.2500  0.4400  0.4400  0.4400  0.4400  0.4400  0.4400  0.4400  0.4400  0.4400  1.2000  1.2000  1.2000  1.2000  1.2000  1.2000  1.2000  1.2000  1.2000  0.0753  0.1129  0.1382  0.1270  0.1468  0.1775  0.2382  0.2478  0.2485
 1975 199    68   0.0960  0.0960  0.1120  0.0940  0.1030  0.1030  0.1020  0.1020  0.1020  0.2300  0.2300  0.2500  0.2200  0.2200  0.2200  0.2500  0.2500  0.2500  0.4400  0.4400  0.4400  0.4400  0.4400  0.4400  0.4400  0.4400  0.4400  1.2000  1.2000  1.2000  1.2000  1.2000  1.2000  1.2000  1.2000  1.2000  0.0718  0.1128  0.1371  0.1256  0.1444  0.1727  0.2366  0.2477  0.2485
 1975 200    69   0.0960  0.0960  0.1120  0.0940  0.1030  0.1030  0.1020  0.1020  0.1020  0.2300  0.2300  0.2500  0.2200  0.2200  0.2200  0.2500  0.2500  0.2500  0.4400  0.4400  0.4400  0.4400  0.4400  0.4400  0.4400  0.4400  0.4400  1.2000  1.2000  1.2000  1.2000  1.2000  1.2000  1.2000  1.2000  1.2000  0.0677  0.1125  0.1361  0.1243  0.1425  0.1677  0.2348  0.2475  0.2485
 1975 201    70   0.0960  0.0960  0.1120  0.0940  0.1030  0.1030  0.1020  0.1020  0.1020  0.2300  0.2300  0.2500  0.2200  0.2200  0.2200  0.2500  0.2500  0.2500  0.4400  0.4400  0.4400  0.4400  0.4400  0.4400  0.4400  0.4400  0.4400  1.2000  1.2000  1.2000  1.2000  1.2000  1.2000  1.2000  1.2000  1.2000  0.0637  0.1120  0.1351  0.1232  0.1408  0.1625  0.2328  0.2473  0.2485
 1975 202    71   0.0960  0.0960  0.1120  0.0940  0.1030  0.1030  0.1020  0.1020  0.1020  0.2300  0.2300  0.2500  0.2200  0.2200  0.2200  0.2500  0.2500  0.2500  0.4400  0.4400  0.4400  0.4400  0.4400  0.4400  0.4400  0.4400  0.4400  1.2000  1.2000  1.2000  1.2000  1.2000  1.2000  1.2000  1.2000  1.2000  0.0600  0.1115  0.1342  0.1222  0.1393  0.1572  0.2308  0.2471  0.2485
 1975 203    72   0.0960  0.0960  0.1120  0.0940  0.1030  0.1030  0.1020  0.1020  0.1020  0.2300  0.2300  0.2500  0.2200  0.2200  0.2200  0.2500  0.2500  0.2500  0.4400  0.4400  0.4400  0.4400  0.4400  0.4400  0.4400  0.4400  0.4400  1.2000  1.2000  1.2000  1.2000  1.2000  1.2000  1.2000  1.2000  1.2000  0.0566  0.1109  0.1334  0.1212  0.1380  0.1527  0.2287  0.2468  0.2485
 1975 204    73   0.0960  0.0960  0.1120  0.0940  0.1030  0.1030  0.1020  0.1020  0.1020  0.2300  0.2300  0.2500  0.2200  0.2200  0.2200  0.2500  0.2500  0.2500  0.4400  0.4400  0.4400  0.4400  0.4400  0.4400  0.4400  0.4400  0.4400  1.2000  1.2000  1.2000  1.2000  1.2000  1.2000  1.2000  1.2000  1.2000  0.0536  0.1102  0.1326  0.1203  0.1368  0.1496  0.2265  0.2465  0.2485
 1975 205    74   0.0960  0.0960  0.1120  0.0940  0.1030  0.1030  0.1020  0.1020  0.1020  0.2300  0.2300  0.2500  0.2200  0.2200  0.2200  0.2500  0.2500  0.2500  0.4400  0.4400  0.4400  0.4400  0.4400  0.4400  0.4400  0.4400  0.4400  1.2000  1.2000  1.2000  1.2000  1.2000  1.2000  1.2000  1.2000  1.2000  0.0508  0.1096  0.1318  0.1195  0.1357  0.1472  0.2242  0.2461  0.2485
 1975 206    75   0.0960  0.0960  0.1120  0.0940  0.1030  0.1030  0.1020  0.1020  0.1020  0.2300  0.2300  0.2500  0.2200  0.2200  0.2200  0.2500  0.2500  0.2500  0.4400  0.4400  0.4400  0.4400  0.4400  0.4400  0.4400  0.4400  0.4400  1.2000  1.2000  1.2000  1.2000  1.2000  1.2000  1.2000  1.2000  1.2000  0.0483  0.1089  0.1311  0.1187  0.1347  0.1453  0.2219  0.2457  0.2485
 1975 207    76   0.0960  0.0960  0.1120  0.0940  0.1030  0.1030  0.1020  0.1020  0.1020  0.2300  0.2300  0.2500  0.2200  0.2200  0.2200  0.2500  0.2500  0.2500  0.4400  0.4400  0.4400  0.4400  0.4400  0.4400  0.4400  0.4400  0.4400  1.2000  1.2000  1.2000  1.2000  1.2000  1.2000  1.2000  1.2000  1.2000  0.0461  0.1082  0.1304  0.1180  0.1338  0.1437  0.2195  0.2453  0.2485
 1975 208    77   0.0960  0.0960  0.1120  0.0940  0.1030  0.1030  0.1020  0.1020  0.1020  0.2300  0.2300  0.2500  0.2200  0.2200  0.2200  0.2500  0.2500  0.2500  0.4400  0.4400  0.4400  0.4400  0.4400  0.4400  0.4400  0.4400  0.4400  1.2000  1.2000  1.2000  1.2000  1.2000  1.2000  1.2000  1.2000  1.2000  0.0441  0.1075  0.1297  0.1173  0.1330  0.1423  0.2171  0.2449  0.2485
 1975 209    78   0.0960  0.0960  0.1120  0.0940  0.1030  0.1030  0.1020  0.1020  0.1020  0.2300  0.2300  0.2500  0.2200  0.2200  0.2200  0.2500  0.2500  0.2500  0.4400  0.4400  0.4400  0.4400  0.4400  0.4400  0.4400  0.4400  0.4400  1.2000  1.2000  1.2000  1.2000  1.2000  1.2000  1.2000  1.2000  1.2000  0.0423  0.1068  0.1291  0.1166  0.1322  0.1411  0.2147  0.2444  0.2485
 1975 210    79   0.0960  0.0960  0.1120  0.0940  0.1030  0.1030  0.1020  0.1020  0.1020  0.2300  0.2300  0.2500  0.2200  0.2200  0.2200  0.2500  0.2500  0.2500  0.4400  0.4400  0.4400  0.4400  0.4400  0.4400  0.4400  0.4400  0.4400  1.2000  1.2000  1.2000  1.2000  1.2000  1.2000  1.2000  1.2000  1.2000  0.0683  0.1066  0.1285  0.1160  0.1314  0.1399  0.2123  0.2440  0.2485
 1975 211    80   0.0960  0.0960  0.1120  0.0940  0.1030  0.1030  0.1020  0.1020  0.1020  0.2300  0.2300  0.2500  0.2200  0.2200  0.2200  0.2500  0.2500  0.2500  0.4400  0.4400  0.4400  0.4400  0.4400  0.4400  0.4400  0.4400  0.4400  1.2000  1.2000  1.2000  1.2000  1.2000  1.2000  1.2000  1.2000  1.2000  0.0772  0.1073  0.1279  0.1155  0.1308  0.1390  0.2101  0.2436  0.2484
 1975 212    81   0.0960  0.0960  0.1120  0.0940  0.1030  0.1030  0.1020  0.1020  0.1020  0.2300  0.2300  0.2500  0.2200  0.2200  0.2200  0.2500  0.2500  0.2500  0.4400  0.4400  0.4400  0.4400  0.4400  0.4400  0.4400  0.4400  0.4400  1.2000  1.2000  1.2000  1.2000  1.2000  1.2000  1.2000  1.2000  1.2000  0.1020  0.1099  0.1276  0.1151  0.1304  0.1384  0.2085  0.2433  0.2484
 1975 213    82   0.0960  0.0960  0.1120  0.0940  0.1030  0.1030  0.1020  0.1020  0.1020  0.2300  0.2300  0.2500  0.2200  0.2200  0.2200  0.2500  0.2500  0.2500  0.4400  0.4400  0.4400  0.4400  0.4400  0.4400  0.4400  0.4400  0.4400  1.2000  1.2000  1.2000  1.2000  1.2000  1.2000  1.2000  1.2000  1.2000  0.0954  0.1127  0.1272  0.1147  0.1300  0.1378  0.2068  0.2429  0.2484
 1975 214    83   0.0960  0.0960  0.1120  0.0940  0.1030  0.1030  0.1020  0.1020  0.1020  0.2300  0.2300  0.2500  0.2200  0.2200  0.2200  0.2500  0.2500  0.2500  0.4400  0.4400  0.4400  0.4400  0.4400  0.4400  0.4400  0.4400  0.4400  1.2000  1.2000  1.2000  1.2000  1.2000  1.2000  1.2000  1.2000  1.2000  0.0887  0.1140  0.1266  0.1142  0.1294  0.1370  0.2043  0.2425  0.2484
 1975 215    84   0.0960  0.0960  0.1120  0.0940  0.1030  0.1030  0.1020  0.1020  0.1020  0.2300  0.2300  0.2500  0.2200  0.2200  0.2200  0.2500  0.2500  0.2500  0.4400  0.4400  0.4400  0.4400  0.4400  0.4400  0.4400  0.4400  0.4400  1.2000  1.2000  1.2000  1.2000  1.2000  1.2000  1.2000  1.2000  1.2000  0.0832  0.1148  0.1262  0.1138  0.1289  0.1364  0.2024  0.2421  0.2484
 1975 216    85   0.0960  0.0960  0.1120  0.0940  0.1030  0.1030  0.1020  0.1020  0.1020  0.2300  0.2300  0.2500  0.2200  0.2200  0.2200  0.2500  0.2500  0.2500  0.4400  0.4400  0.4400  0.4400  0.4400  0.4400  0.4400  0.4400  0.4400  1.2000  1.2000  1.2000  1.2000  1.2000  1.2000  1.2000  1.2000  1.2000  0.0776  0.1151  0.1258  0.1135  0.1285  0.1358  0.2005  0.2417  0.2484
 1975 217    86   0.0960  0.0960  0.1120  0.0940  0.1030  0.1030  0.1020  0.1020  0.1020  0.2300  0.2300  0.2500  0.2200  0.2200  0.2200  0.2500  0.2500  0.2500  0.4400  0.4400  0.4400  0.4400  0.4400  0.4400  0.4400  0.4400  0.4400  1.2000  1.2000  1.2000  1.2000  1.2000  1.2000  1.2000  1.2000  1.2000  0.0722  0.1147  0.1254  0.1130  0.1280  0.1352  0.1981  0.2412  0.2484
 1975 218    87   0.0960  0.0960  0.1120  0.0940  0.1030  0.1030  0.1020  0.1020  0.1020  0.2300  0.2300  0.2500  0.2200  0.2200  0.2200  0.2500  0.2500  0.2500  0.4400  0.4400  0.4400  0.4400  0.4400  0.4400  0.4400  0.4400  0.4400  1.2000  1.2000  1.2000  1.2000  1.2000  1.2000  1.2000  1.2000  1.2000  0.0673  0.1141  0.1249  0.1126  0.1275  0.1345  0.1956  0.2407  0.2484
 1975 219    88   0.0960  0.0960  0.1120  0.0940  0.1030  0.1030  0.1020  0.1020  0.1020  0.2300  0.2300  0.2500  0.2200  0.2200  0.2200  0.2500  0.2500  0.2500  0.4400  0.4400  0.4400  0.4400  0.4400  0.4400  0.4400  0.4400  0.4400  1.2000  1.2000  1.2000  1.2000  1.2000  1.2000  1.2000  1.2000  1.2000  0.0909  0.1152  0.1247  0.1124  0.1273  0.1343  0.1947  0.2406  0.2484
 1975 220    89   0.0960  0.0960  0.1120  0.0940  0.1030  0.1030  0.1020  0.1020  0.1020  0.2300  0.2300  0.2500  0.2200  0.2200  0.2200  0.2500  0.2500  0.2500  0.4400  0.4400  0.4400  0.4400  0.4400  0.4400  0.4400  0.4400  0.4400  1.2000  1.2000  1.2000  1.2000  1.2000  1.2000  1.2000  1.2000  1.2000  0.0863  0.1164  0.1244  0.1121  0.1270  0.1339  0.1934  0.2403  0.2484
 1975 221    90   0.0960  0.0960  0.1120  0.0940  0.1030  0.1030  0.1020  0.1020  0.1020  0.2300  0.2300  0.2500  0.2200  0.2200  0.2200  0.2500  0.2500  0.2500  0.4400  0.4400  0.4400  0.4400  0.4400  0.4400  0.4400  0.4400  0.4400  1.2000  1.2000  1.2000  1.2000  1.2000  1.2000  1.2000  1.2000  1.2000  0.0800  0.1170  0.1241  0.1119  0.1268  0.1336  0.1922  0.2400  0.2484
 1975 222    91   0.0960  0.0960  0.1120  0.0940  0.1030  0.1030  0.1020  0.1020  0.1020  0.2300  0.2300  0.2500  0.2200  0.2200  0.2200  0.2500  0.2500  0.2500  0.4400  0.4400  0.4400  0.4400  0.4400  0.4400  0.4400  0.4400  0.4400  1.2000  1.2000  1.2000  1.2000  1.2000  1.2000  1.2000  1.2000  1.2000  0.0742  0.1175  0.1239  0.1118  0.1266  0.1334  0.1913  0.2399  0.2484
 1975 223    92   0.0960  0.0960  0.1120  0.0940  0.1030  0.1030  0.1020  0.1020  0.1020  0.2300  0.2300  0.2500  0.2200  0.2200  0.2200  0.2500  0.2500  0.2500  0.4400  0.4400  0.4400  0.4400  0.4400  0.4400  0.4400  0.4400  0.4400  1.2000  1.2000  1.2000  1.2000  1.2000  1.2000  1.2000  1.2000  1.2000  0.0825  0.1182  0.1237  0.1116  0.1265  0.1333  0.1907  0.2397  0.2483
 1975 224    93   0.0960  0.0960  0.1120  0.0940  0.1030  0.1030  0.1020  0.1020  0.1020  0.2300  0.2300  0.2500  0.2200  0.2200  0.2200  0.2500  0.2500  0.2500  0.4400  0.4400  0.4400  0.4400  0.4400  0.4400  0.4400  0.4400  0.4400  1.2000  1.2000  1.2000  1.2000  1.2000  1.2000  1.2000  1.2000  1.2000  0.0799  0.1192  0.1236  0.1115  0.1264  0.1332  0.1902  0.2396  0.2483
 1975 225    94   0.0960  0.0960  0.1120  0.0940  0.1030  0.1030  0.1020  0.1020  0.1020  0.2300  0.2300  0.2500  0.2200  0.2200  0.2200  0.2500  0.2500  0.2500  0.4400  0.4400  0.4400  0.4400  0.4400  0.4400  0.4400  0.4400  0.4400  1.2000  1.2000  1.2000  1.2000  1.2000  1.2000  1.2000  1.2000  1.2000  0.0750  0.1201  0.1235  0.1115  0.1263  0.1331  0.1900  0.2396  0.2483
 1975 226    95   0.0960  0.0960  0.1120  0.0940  0.1030  0.1030  0.1020  0.1020  0.1020  0.2300  0.2300  0.2500  0.2200  0.2200  0.2200  0.2500  0.2500  0.2500  0.4400  0.4400  0.4400  0.4400  0.4400  0.4400  0.4400  0.4400  0.4400  1.2000  1.2000  1.2000  1.2000  1.2000  1.2000  1.2000  1.2000  1.2000  0.0701  0.1209  0.1233  0.1114  0.1263  0.1331  0.1900  0.2396  0.2483
 1975 227    96   0.0960  0.0960  0.1120  0.0940  0.1030  0.1030  0.1020  0.1020  0.1020  0.2300  0.2300  0.2500  0.2200  0.2200  0.2200  0.2500  0.2500  0.2500  0.4400  0.4400  0.4400  0.4400  0.4400  0.4400  0.4400  0.4400  0.4400  1.2000  1.2000  1.2000  1.2000  1.2000  1.2000  1.2000  1.2000  1.2000  0.0655  0.1215  0.1232  0.1114  0.1263  0.1331  0.1900  0.2396  0.2483
 1975 228    97   0.0960  0.0960  0.1120  0.0940  0.1030  0.1030  0.1020  0.1020  0.1020  0.2300  0.2300  0.2500  0.2200  0.2200  0.2200  0.2500  0.2500  0.2500  0.4400  0.4400  0.4400  0.4400  0.4400  0.4400  0.4400  0.4400  0.4400  1.2000  1.2000  1.2000  1.2000  1.2000  1.2000  1.2000  1.2000  1.2000  0.0614  0.1220  0.1231  0.1114  0.1263  0.1330  0.1899  0.2395  0.2483
 1975 229    98   0.0960  0.0960  0.1120  0.0940  0.1030  0.1030  0.1020  0.1020  0.1020  0.2300  0.2300  0.2500  0.2200  0.2200  0.2200  0.2500  0.2500  0.2500  0.4400  0.4400  0.4400  0.4400  0.4400  0.4400  0.4400  0.4400  0.4400  1.2000  1.2000  1.2000  1.2000  1.2000  1.2000  1.2000  1.2000  1.2000  0.0800  0.1228  0.1230  0.1113  0.1262  0.1330  0.1899  0.2395  0.2483
 1975 230    99   0.0960  0.0960  0.1120  0.0940  0.1030  0.1030  0.1020  0.1020  0.1020  0.2300  0.2300  0.2500  0.2200  0.2200  0.2200  0.2500  0.2500  0.2500  0.4400  0.4400  0.4400  0.4400  0.4400  0.4400  0.4400  0.4400  0.4400  1.2000  1.2000  1.2000  1.2000  1.2000  1.2000  1.2000  1.2000  1.2000  0.0777  0.1240  0.1229  0.1113  0.1262  0.1330  0.1899  0.2395  0.2483
 1975 231   100   0.0960  0.0960  0.1120  0.0940  0.1030  0.1030  0.1020  0.1020  0.1020  0.2300  0.2300  0.2500  0.2200  0.2200  0.2200  0.2500  0.2500  0.2500  0.4400  0.4400  0.4400  0.4400  0.4400  0.4400  0.4400  0.4400  0.4400  1.2000  1.2000  1.2000  1.2000  1.2000  1.2000  1.2000  1.2000  1.2000  0.0942  0.1259  0.1228  0.1113  0.1262  0.1330  0.1899  0.2395  0.2483
 1975 232   101   0.0960  0.0960  0.1120  0.0940  0.1030  0.1030  0.1020  0.1020  0.1020  0.2300  0.2300  0.2500  0.2200  0.2200  0.2200  0.2500  0.2500  0.2500  0.4400  0.4400  0.4400  0.4400  0.4400  0.4400  0.4400  0.4400  0.4400  1.2000  1.2000  1.2000  1.2000  1.2000  1.2000  1.2000  1.2000  1.2000  0.1034  0.1286  0.1227  0.1112  0.1262  0.1330  0.1899  0.2395  0.2483
 1975 233   102   0.0960  0.0960  0.1120  0.0940  0.1030  0.1030  0.1020  0.1020  0.1020  0.2300  0.2300  0.2500  0.2200  0.2200  0.2200  0.2500  0.2500  0.2500  0.4400  0.4400  0.4400  0.4400  0.4400  0.4400  0.4400  0.4400  0.4400  1.2000  1.2000  1.2000  1.2000  1.2000  1.2000  1.2000  1.2000  1.2000  0.1103  0.1319  0.1226  0.1112  0.1262  0.1329  0.1899  0.2395  0.2483
