
*SOIL N BALANCE - CENTURY ROUTINES

*DSSAT Cropping System Model Ver. 4.8.5.021 -my_coup_branch  SEP 16, 2025 13:43:32

!                              |--------------- Initial N State Variables ----------------|----------------- Final N State Variables -----------------|------------- N Additions -------------|---------------- N Subtractions -----------------|--Mineralization---|----- Seasonal Balance -----|
!                              |----------------- Organic ----------------------|         |------------------ Organic ----------------------|         |  Harvest   Applied                    |              Tile-     Plant     N gas     Flood|   Miner-    Immob-|                            |
!                              | Surface      SOM1      SOM2      SOM3    Litter     Inorg|  Surface      SOM1      SOM2      SOM3    Litter     Inorg|  Residue   Residue  Fertiliz   Senesed|  Leached   drained    Uptake    Losses    Losses|   alized    ilized|Inorganic   Organic   Overall
@Run FILEX               TN CR     SN0Di    S1NTDi    S2NTDi    S3NTDi     LNTDi     NIADi      SN0D     S1NTD     S2NTD     S3NTD      LNTD      NIAD      HRNH     RESNC      NICM     SNNTC      NLCM      TDFC      NUCM     NGasC      RNRO      NMNC      NIMC    InNBal   OrgNBal     SNBAL
   1 SWSW7501.WHX         1 WH      0.00      0.00   6408.00      0.00     11.40     68.82      0.57      0.00   6400.85      0.00     11.40     45.62      0.00      0.00      0.00      0.79      0.00      0.00     30.28      0.28      0.00      7.54      0.17      0.00      0.00      0.00
