*WATER BALANCE SUMMARY OUTPUT FILE

*DSSAT Cropping System Model Ver. 4.8.5.021 -my_coup_branch  AUG 28, 2025 14:55:29

!                           |----- Initial Water Content (mm) -----|------ Final Water Content (mm) -------|-------- Water Additions (mm) ---------|--------------- Water Losses (mm) ---------------|-----------|
!                           |    Soil     Mulch     Flood      Snow      Soil     Mulch     Flood      Snow    Precip     Irrig   LatFlow   Residue      Evap  Transpir    Runoff  Drainage   Tile Dr     Balance
@  Run FILEX          TN CR     SWTDi     MWTDi     FWTDi    SNOWDi      SWTD      MWTD      FWTD     SNOWD      PRCM      IRRC     LATFC     RESAC      ESCM      EPCM      ROCM      DRCM      TDFC     CUMWBAL
     1 SWSW7501.WHX    1 WH    358.50      0.00      0.00      0.00    245.87      0.00      0.00      0.00    162.00      0.00      0.00      0.00    184.04     87.90      0.00      0.05      0.00      2.6315
     1 SWSW7501.WHX    1 WH    358.50      0.00      0.00      0.00    245.85      0.00      0.00      0.00      0.00      0.00      0.00      0.00    184.01     87.95      0.00      0.05      0.00   -159.3663
     1 SWSW7501.WHX    1 WH    358.50      0.00      0.00      0.00    245.87      0.00      0.00      0.00    162.00      0.00      0.00      0.00    184.04     87.90      0.00      0.05      0.00      2.6315
     1 SWSW7501.WHX    1 WH    358.50      0.00      0.00      0.00    245.85      0.00      0.00      0.00      0.00      0.00      0.00      0.00    184.01     87.95      0.00      0.05      0.00   -159.3663
     1 SWSW7501.WHX    1 WH    358.50      0.00      0.00      0.00    245.85      0.00      0.00      0.00      0.00      0.00      0.00      0.00    184.01     87.95      0.00      0.05      0.00   -159.3663
     1 SWSW7501.WHX    1 WH    358.50      0.00      0.00      0.00    245.85      0.00      0.00      0.00      0.00      0.00      0.00      0.00    184.01     87.95      0.00      0.05      0.00   -159.3663
     1 SWSW7501.WHX    1 WH    358.50      0.00      0.00      0.00    245.85      0.00      0.00      0.00      0.00      0.00      0.00      0.00    184.01     87.95      0.00      0.05      0.00   -159.3663
     1 SWSW7501.WHX    1 WH    358.50      0.00      0.00      0.00    192.07      0.00      0.00      0.00      0.00      0.00      0.00      0.00    261.25     49.12      0.00      0.28      0.00   -144.2221
     1 SWSW7501.WHX    1 WH    358.50      0.00      0.00      0.00    192.07      0.00      0.00      0.00      0.00      0.00      0.00      0.00    261.25     49.12      0.00      0.28      0.00   -144.2221
     1 SWSW7501.WHX    1 WH    358.50      0.00      0.00      0.00    274.89      0.00      0.00      0.00      0.00      0.00      0.00      0.00    130.39     83.79      0.00      0.02      0.00   -130.5849
     1 SWSW7501.WHX    1 WH    358.50      0.00      0.00      0.00    274.89      0.00      0.00      0.00      0.00      0.00      0.00      0.00    130.39     83.79      0.00      0.02      0.00   -130.5849
     1 SWSW7501.WHX    1 WH    358.50      0.00      0.00      0.00    274.89      0.00      0.00      0.00      0.00      0.00      0.00      0.00    130.39     83.79      0.00      0.02      0.00   -130.5849
     1 SWSW7501.WHX    1 WH    358.50      0.00      0.00      0.00    267.46      0.00      0.00      0.00      0.00      0.00      0.00      0.00     53.49     78.83      0.00      0.00      0.00    -41.2767
