*SOIL-PLANT-ATMOSPHERE MODULE OUTPUT FILE

*DSSAT Cropping System Model Ver. 4.8.2.010 -develop  JUL 08, 2024 16:11:18

*RUN   1        : 0 KG N/HA                 CSCER048 RORO7401    1
 MODEL          : CSCER048 - Wheat
 EXPERIMENT     : RORO7401 WH N RESPONSE,ROTHAMSTED  8FE(N)  (DSSAT3)
 DATA PATH      : C:\DSSAT48\Wheat\
 TREATMENT  1   : 0 KG N/HA                 CSCER048
  
!                                                                                                                                                                                        Soil evaporation (mm/d) by soil depth (cm):
!                                                                                                                                                                                        0-5    5-15   15-25   25-35   35-45   45-55   55-65   65-95  95-125 125-155
@YEAR DOY   DAS   SRAA  TMAXA  TMINA    REFA    EOAA    EOPA    EOSA    ETAA    EPAA    ESAA    EFAA    EMAA    EOAC    ETAC    EPAC    ESAC    EFAC    EMAC    KCAA    KBSA    KEAA    ES1D    ES2D    ES3D    ES4D    ES5D    ES6D    ES7D    ES8D    ES9D  ES10D   TRWUD   TWUPD
 1974 305     1   0.80   8.10   0.10 -99.000   0.137   0.000   0.137   0.137   0.000   0.137   0.000   0.000    0.14    0.14    0.00    0.14    0.00    0.00 -99.000 -99.000 -99.000   0.030   0.023   0.015   0.010   0.008   0.007   0.006   0.015   0.012   0.010   0.000   0.000
 1974 306     2   1.60   9.80   4.50 -99.000   0.295   0.000   0.295   0.295   0.000   0.295   0.000   0.000    0.43    0.43    0.00    0.43    0.00    0.00 -99.000 -99.000 -99.000   0.062   0.049   0.032   0.024   0.018   0.015   0.013   0.033   0.026   0.022   0.000   0.000
 1974 307     3   3.40   9.20   5.30 -99.000   0.625   0.000   0.625   0.625   0.000   0.625   0.000   0.000    1.06    1.06    0.00    1.06    0.00    0.00 -99.000 -99.000 -99.000   0.133   0.104   0.067   0.053   0.038   0.032   0.028   0.069   0.055   0.047   0.000   0.000
 1974 308     4   3.30   8.40   3.00 -99.000   0.585   0.000   0.585   0.585   0.000   0.585   0.000   0.000    1.64    1.64    0.00    1.64    0.00    0.00 -99.000 -99.000 -99.000   0.121   0.096   0.062   0.050   0.038   0.030   0.027   0.065   0.052   0.044   0.000   0.000
 1974 309     5   4.40   8.60   4.30 -99.000   0.791   0.000   0.791   0.791   0.000   0.791   0.000   0.000    2.43    2.43    0.00    2.43    0.00    0.00 -99.000 -99.000 -99.000   0.160   0.128   0.083   0.068   0.055   0.042   0.036   0.089   0.071   0.060   0.000   0.000
 1974 310     6   3.20   9.40   1.60 -99.000   0.564   0.000   0.564   0.564   0.000   0.564   0.000   0.000    3.00    3.00    0.00    3.00    0.00    0.00 -99.000 -99.000 -99.000   0.114   0.091   0.059   0.049   0.040   0.030   0.026   0.063   0.051   0.043   0.000   0.000
 1974 311     7   1.20  10.60   4.60 -99.000   0.223   0.000   0.223   0.223   0.000   0.223   0.000   0.000    3.22    3.22    0.00    3.22    0.00    0.00 -99.000 -99.000 -99.000   0.046   0.036   0.023   0.019   0.016   0.012   0.010   0.025   0.020   0.017   0.000   0.000
 1974 312     8   1.20  11.40   6.70 -99.000   0.232   0.000   0.232   0.232   0.000   0.232   0.000   0.000    3.45    3.45    0.00    3.45    0.00    0.00 -99.000 -99.000 -99.000   0.048   0.037   0.024   0.020   0.016   0.012   0.011   0.026   0.021   0.017   0.000   0.000
 1974 313     9   1.00  12.90   6.90 -99.000   0.198   0.000   0.198   0.198   0.000   0.198   0.000   0.000    3.65    3.65    0.00    3.65    0.00    0.00 -99.000 -99.000 -99.000   0.042   0.032   0.020   0.017   0.014   0.011   0.009   0.022   0.017   0.015   0.000   0.000
 1974 314    10   4.50  10.10   4.80 -99.000   0.837   0.000   0.837   0.837   0.000   0.837   0.000   0.000    4.49    4.49    0.00    4.49    0.00    0.00 -99.000 -99.000 -99.000   0.178   0.137   0.087   0.071   0.058   0.045   0.037   0.091   0.073   0.061   0.000   0.000
 1974 315    11   1.00   8.20   6.50 -99.000   0.184   0.000   0.184   0.184   0.000   0.184   0.000   0.000    4.67    4.67    0.00    4.67    0.00    0.00 -99.000 -99.000 -99.000   0.038   0.031   0.019   0.016   0.013   0.010   0.008   0.020   0.016   0.013   0.000   0.000
 1974 316    12   3.30   7.90   2.10 -99.000   0.574   0.000   0.574   0.574   0.000   0.574   0.000   0.000    5.25    5.25    0.00    5.25    0.00    0.00 -99.000 -99.000 -99.000   0.117   0.095   0.062   0.050   0.040   0.033   0.025   0.061   0.049   0.042   0.000   0.000
 1974 317    13   0.50  10.60   1.40 -99.000   0.090   0.000   0.090   0.090   0.000   0.090   0.000   0.000    5.34    5.34    0.00    5.34    0.00    0.00 -99.000 -99.000 -99.000   0.018   0.015   0.010   0.008   0.006   0.005   0.004   0.010   0.008   0.006   0.000   0.000
 1974 318    14   2.30  10.90   7.10 -99.000   0.444   0.000   0.444   0.444   0.000   0.444   0.000   0.000    5.78    5.78    0.00    5.78    0.00    0.00 -99.000 -99.000 -99.000   0.088   0.073   0.049   0.037   0.030   0.026   0.023   0.052   0.036   0.030   0.000   0.000
 1974 319    15   3.60  10.90   5.50 -99.000   0.683   0.004   0.678   0.683   0.004   0.678   0.000   0.000    6.46    6.46    0.00    6.46    0.00    0.00 -99.000 -99.000 -99.000   0.134   0.110   0.073   0.056   0.046   0.040   0.035   0.081   0.057   0.046   0.000   0.010
 1974 320    16   3.30   8.80   5.40 -99.000   0.603   0.007   0.597   0.603   0.007   0.597   0.000   0.000    7.07    7.07    0.01    7.05    0.00    0.00 -99.000 -99.000 -99.000   0.117   0.096   0.063   0.050   0.041   0.035   0.031   0.072   0.052   0.040   0.001   0.012
 1974 321    17   3.10   9.40   1.90 -99.000   0.550   0.008   0.542   0.550   0.008   0.542   0.000   0.000    7.62    7.62    0.02    7.60    0.00    0.00 -99.000 -99.000 -99.000   0.105   0.086   0.057   0.044   0.036   0.031   0.027   0.066   0.051   0.039   0.001   0.013
 1974 322    18   0.70   5.70   4.00 -99.000   0.119   0.002   0.117   0.119   0.002   0.117   0.000   0.000    7.74    7.74    0.02    7.71    0.00    0.00 -99.000 -99.000 -99.000   0.022   0.019   0.012   0.009   0.008   0.007   0.006   0.014   0.011   0.009   0.000   0.015
 1974 323    19   4.70   7.60   1.20 -99.000   0.802   0.015   0.787   0.802   0.015   0.787   0.000   0.000    8.54    8.54    0.04    8.50    0.00    0.00 -99.000 -99.000 -99.000   0.150   0.124   0.082   0.063   0.052   0.044   0.039   0.094   0.076   0.062   0.002   0.016
 1974 324    20   0.20   8.70  -0.60 -99.000   0.034   0.001   0.033   0.034   0.001   0.033   0.000   0.000    8.57    8.57    0.04    8.53    0.00    0.00 -99.000 -99.000 -99.000   0.006   0.005   0.004   0.003   0.002   0.002   0.002   0.004   0.003   0.003   0.000   0.017
 1974 325    21   1.30   9.40   4.60 -99.000   0.238   0.005   0.233   0.238   0.005   0.233   0.000   0.000    8.81    8.81    0.04    8.77    0.00    0.00 -99.000 -99.000 -99.000   0.044   0.036   0.024   0.019   0.015   0.013   0.011   0.028   0.022   0.019   0.001   0.018
 1974 326    22   0.80   8.90   6.90 -99.000   0.149   0.004   0.145   0.149   0.004   0.145   0.000   0.000    8.96    8.96    0.05    8.91    0.00    0.00 -99.000 -99.000 -99.000   0.027   0.022   0.015   0.012   0.010   0.008   0.007   0.018   0.014   0.012   0.000   0.019
 1974 327    23   1.80  10.90   5.60 -99.000   0.339   0.010   0.329   0.339   0.010   0.329   0.000   0.000    9.30    9.30    0.06    9.24    0.00    0.00 -99.000 -99.000 -99.000   0.061   0.049   0.033   0.027   0.022   0.019   0.017   0.040   0.032   0.028   0.001   0.021
 1974 328    24   0.90   9.10   1.60 -99.000   0.157   0.006   0.152   0.157   0.006   0.152   0.000   0.000    9.45    9.45    0.06    9.39    0.00    0.00 -99.000 -99.000 -99.000   0.029   0.023   0.015   0.013   0.010   0.009   0.008   0.018   0.015   0.013   0.001   0.022
 1974 329    25   3.80   7.10   4.00 -99.000   0.661   0.025   0.636   0.661   0.025   0.636   0.000   0.000   10.12   10.12    0.09   10.03    0.00    0.00 -99.000 -99.000 -99.000   0.122   0.095   0.062   0.052   0.043   0.037   0.032   0.077   0.062   0.053   0.003   0.024
 1974 330    26   2.10   6.50   3.50 -99.000   0.358   0.015   0.344   0.358   0.015   0.344   0.000   0.000   10.47   10.47    0.10   10.37    0.00    0.00 -99.000 -99.000 -99.000   0.066   0.052   0.034   0.028   0.023   0.020   0.017   0.042   0.034   0.029   0.001   0.025
 1974 331    27   0.90   9.50  -0.40 -99.000   0.155   0.007   0.148   0.155   0.007   0.148   0.000   0.000   10.63   10.63    0.11   10.52    0.00    0.00 -99.000 -99.000 -99.000   0.029   0.022   0.014   0.012   0.010   0.008   0.007   0.018   0.014   0.012   0.001   0.026
 1974 332    28   1.80   7.60   3.00 -99.000   0.312   0.014   0.298   0.312   0.014   0.298   0.000   0.000   10.94   10.94    0.12   10.82    0.00    0.00 -99.000 -99.000 -99.000   0.059   0.045   0.029   0.024   0.020   0.017   0.015   0.036   0.029   0.024   0.001   0.027
 1974 333    29   2.30   9.70   4.10 -99.000   0.418   0.020   0.399   0.418   0.020   0.399   0.000   0.000   11.36   11.36    0.14   11.22    0.00    0.00 -99.000 -99.000 -99.000   0.080   0.061   0.039   0.032   0.026   0.022   0.020   0.048   0.038   0.032   0.002   0.028
 1974 334    30   1.30  11.90   3.60 -99.000   0.244   0.012   0.231   0.244   0.012   0.231   0.000   0.000   11.60   11.60    0.15   11.45    0.00    0.00 -99.000 -99.000 -99.000   0.045   0.036   0.023   0.019   0.015   0.013   0.012   0.028   0.022   0.019   0.001   0.029
 1974 335    31   1.00  12.40   5.00 -99.000   0.191   0.010   0.181   0.191   0.010   0.181   0.000   0.000   11.79   11.79    0.16   11.63    0.00    0.00 -99.000 -99.000 -99.000   0.035   0.028   0.018   0.015   0.012   0.010   0.009   0.022   0.018   0.015   0.001   0.031
 1974 336    32   1.00  13.30   8.60 -99.000   0.201   0.011   0.189   0.201   0.011   0.189   0.000   0.000   11.99   11.99    0.18   11.82    0.00    0.00 -99.000 -99.000 -99.000   0.036   0.029   0.019   0.015   0.013   0.011   0.009   0.023   0.019   0.016   0.001   0.033
 1974 337    33   0.80  11.60  10.50 -99.000   0.159   0.010   0.149   0.159   0.010   0.149   0.000   0.000   12.15   12.15    0.19   11.97    0.00    0.00 -99.000 -99.000 -99.000   0.028   0.023   0.015   0.012   0.010   0.009   0.008   0.018   0.015   0.012   0.001   0.035
 1974 338    34   2.30  11.40   8.60 -99.000   0.447   0.030   0.417   0.447   0.030   0.417   0.000   0.000   12.60   12.60    0.22   12.39    0.00    0.00 -99.000 -99.000 -99.000   0.079   0.063   0.041   0.034   0.028   0.024   0.021   0.052   0.041   0.035   0.003   0.037
 1974 339    35   2.40   8.60   3.90 -99.000   0.424   0.030   0.394   0.424   0.030   0.394   0.000   0.000   13.02   13.02    0.24   12.78    0.00    0.00 -99.000 -99.000 -99.000   0.074   0.059   0.039   0.032   0.026   0.023   0.020   0.049   0.039   0.033   0.003   0.039
 1974 340    36   1.90  10.80   5.50 -99.000   0.353   0.025   0.328   0.353   0.025   0.328   0.000   0.000   13.38   13.38    0.27   13.11    0.00    0.00 -99.000 -99.000 -99.000   0.061   0.050   0.032   0.027   0.022   0.019   0.017   0.041   0.032   0.027   0.003   0.040
 1974 341    37   1.70  11.90   7.00 -99.000   0.327   0.024   0.302   0.327   0.024   0.302   0.000   0.000   13.70   13.70    0.29   13.41    0.00    0.00 -99.000 -99.000 -99.000   0.056   0.046   0.030   0.025   0.020   0.017   0.015   0.037   0.030   0.025   0.002   0.042
 1974 342    38   0.40  10.60   9.00 -99.000   0.077   0.006   0.071   0.077   0.006   0.071   0.000   0.000   13.78   13.78    0.30   13.48    0.00    0.00 -99.000 -99.000 -99.000   0.013   0.011   0.007   0.006   0.005   0.004   0.004   0.009   0.007   0.006   0.001   0.043
 1974 343    39   1.50   8.10   6.90 -99.000   0.271   0.022   0.249   0.271   0.022   0.249   0.000   0.000   14.05   14.05    0.32   13.73    0.00    0.00 -99.000 -99.000 -99.000   0.047   0.037   0.024   0.020   0.017   0.014   0.013   0.031   0.025   0.021   0.002   0.045
 1974 344    40   1.50   7.00  -0.40 -99.000   0.244   0.021   0.224   0.244   0.021   0.224   0.000   0.000   14.30   14.30    0.34   13.95    0.00    0.00 -99.000 -99.000 -99.000   0.044   0.035   0.022   0.018   0.015   0.013   0.011   0.027   0.022   0.018   0.002   0.046
 1974 345    41   3.00   3.70   0.70 -99.000   0.303   0.026   0.278   0.303   0.026   0.278   0.000   0.000   14.60   14.60    0.37   14.23    0.00    0.00 -99.000 -99.000 -99.000   0.055   0.045   0.028   0.022   0.018   0.015   0.013   0.033   0.026   0.022   0.003   0.047
 1974 346    42   0.30   8.90   0.20 -99.000   0.051   0.004   0.047   0.051   0.004   0.047   0.000   0.000   14.65   14.65    0.37   14.28    0.00    0.00 -99.000 -99.000 -99.000   0.009   0.008   0.005   0.004   0.003   0.003   0.002   0.005   0.004   0.004   0.000   0.048
 1974 347    43   2.80   7.80  -0.70 -99.000   0.464   0.040   0.424   0.464   0.040   0.424   0.000   0.000   15.11   15.11    0.41   14.70    0.00    0.00 -99.000 -99.000 -99.000   0.082   0.066   0.042   0.035   0.028   0.024   0.021   0.051   0.041   0.034   0.004   0.049
 1974 348    44   2.10   9.50  -0.50 -99.000   0.358   0.031   0.327   0.358   0.031   0.327   0.000   0.000   15.47   15.47    0.44   15.03    0.00    0.00 -99.000 -99.000 -99.000   0.063   0.050   0.033   0.027   0.022   0.019   0.016   0.040   0.032   0.027   0.003   0.050
 1974 349    45   2.80   7.40   2.40 -99.000   0.476   0.041   0.434   0.476   0.041   0.434   0.000   0.000   15.95   15.95    0.49   15.46    0.00    0.00 -99.000 -99.000 -99.000   0.082   0.066   0.043   0.036   0.029   0.025   0.022   0.053   0.042   0.036   0.004   0.051
 1974 350    46   0.20  10.40   2.30 -99.000   0.036   0.003   0.033   0.036   0.003   0.033   0.000   0.000   15.98   15.98    0.49   15.49    0.00    0.00 -99.000 -99.000 -99.000   0.006   0.005   0.003   0.003   0.002   0.002   0.002   0.004   0.003   0.003   0.000   0.053
 1974 351    47   2.80   6.20   3.30 -99.000   0.472   0.042   0.430   0.472   0.042   0.430   0.000   0.000   16.46   16.46    0.53   15.92    0.00    0.00 -99.000 -99.000 -99.000   0.084   0.065   0.042   0.035   0.029   0.024   0.021   0.052   0.042   0.035   0.004   0.054
 1974 352    48   1.70   8.40   2.90 -99.000   0.295   0.027   0.269   0.295   0.027   0.269   0.000   0.000   16.75   16.75    0.56   16.19    0.00    0.00 -99.000 -99.000 -99.000   0.051   0.041   0.026   0.022   0.018   0.015   0.014   0.033   0.026   0.022   0.003   0.055
 1974 353    49   0.90   9.40   3.60 -99.000   0.160   0.015   0.145   0.160   0.015   0.145   0.000   0.000   16.91   16.91    0.57   16.34    0.00    0.00 -99.000 -99.000 -99.000   0.028   0.022   0.014   0.012   0.010   0.008   0.007   0.018   0.014   0.012   0.001   0.056
 1974 354    50   1.50  11.00   7.90 -99.000   0.286   0.027   0.259   0.286   0.027   0.259   0.000   0.000   17.20   17.20    0.60   16.60    0.00    0.00 -99.000 -99.000 -99.000   0.049   0.039   0.026   0.021   0.017   0.015   0.013   0.032   0.026   0.022   0.003   0.058
 1974 355    51   0.30  10.50   8.40 -99.000   0.057   0.006   0.051   0.057   0.006   0.051   0.000   0.000   17.25   17.25    0.60   16.65    0.00    0.00 -99.000 -99.000 -99.000   0.010   0.008   0.005   0.004   0.003   0.003   0.003   0.006   0.005   0.004   0.001   0.059
 1974 356    52   1.30  11.60   8.40 -99.000   0.253   0.026   0.227   0.253   0.026   0.227   0.000   0.000   17.51   17.51    0.63   16.88    0.00    0.00 -99.000 -99.000 -99.000   0.046   0.034   0.022   0.018   0.015   0.013   0.011   0.027   0.022   0.018   0.003   0.061
 1974 357    53   2.30  11.60   8.80 -99.000   0.449   0.047   0.401   0.449   0.047   0.401   0.000   0.000   17.96   17.96    0.68   17.28    0.00    0.00 -99.000 -99.000 -99.000   0.080   0.061   0.039   0.032   0.026   0.023   0.020   0.049   0.039   0.033   0.005   0.063
 1974 358    54   2.00   8.50   6.70 -99.000   0.363   0.040   0.323   0.363   0.040   0.323   0.000   0.000   18.32   18.32    0.72   17.60    0.00    0.00 -99.000 -99.000 -99.000   0.064   0.049   0.032   0.026   0.021   0.018   0.016   0.039   0.031   0.026   0.004   0.065
 1974 359    55   0.20  12.50   1.30 -99.000   0.036   0.004   0.032   0.036   0.004   0.032   0.000   0.000   18.35   18.35    0.72   17.63    0.00    0.00 -99.000 -99.000 -99.000   0.006   0.005   0.003   0.003   0.002   0.002   0.002   0.004   0.003   0.003   0.000   0.066
 1974 360    56   1.40  10.80   5.10 -99.000   0.259   0.029   0.230   0.259   0.029   0.230   0.000   0.000   18.61   18.61    0.75   17.86    0.00    0.00 -99.000 -99.000 -99.000   0.046   0.036   0.023   0.019   0.015   0.013   0.011   0.027   0.022   0.018   0.003   0.067
 1974 361    57   1.90  13.00   6.50 -99.000   0.369   0.043   0.327   0.369   0.043   0.327   0.000   0.000   18.98   18.98    0.79   18.19    0.00    0.00 -99.000 -99.000 -99.000   0.062   0.051   0.034   0.027   0.022   0.019   0.016   0.039   0.031   0.026   0.004   0.068
 1974 362    58   1.70  13.90   7.10 -99.000   0.336   0.040   0.296   0.336   0.040   0.296   0.000   0.000   19.32   19.32    0.83   18.49    0.00    0.00 -99.000 -99.000 -99.000   0.056   0.045   0.030   0.025   0.020   0.017   0.015   0.035   0.028   0.024   0.004   0.070
 1974 363    59   1.50  10.50  10.30 -99.000   0.290   0.035   0.255   0.290   0.035   0.255   0.000   0.000   19.61   19.61    0.87   18.74    0.00    0.00 -99.000 -99.000 -99.000   0.048   0.038   0.025   0.021   0.018   0.015   0.013   0.031   0.025   0.021   0.004   0.071
 1974 364    60   2.80   7.40   0.80 -99.000   0.464   0.057   0.406   0.463   0.057   0.406   0.000   0.000   20.07   20.07    0.93   19.15    0.00    0.00 -99.000 -99.000 -99.000   0.076   0.061   0.040   0.034   0.028   0.024   0.021   0.050   0.040   0.034   0.006   0.072
 1974 365    61   1.40   8.50   1.50 -99.000   0.238   0.029   0.209   0.238   0.029   0.209   0.000   0.000   20.31   20.31    0.96   19.36    0.00    0.00 -99.000 -99.000 -99.000   0.039   0.032   0.021   0.017   0.014   0.012   0.011   0.026   0.021   0.017   0.003   0.074
 1975 001    62   0.80   7.80   4.20 -99.000   0.139   0.017   0.122   0.139   0.017   0.121   0.000   0.000   20.45   20.45    0.97   19.48    0.00    0.00 -99.000 -99.000 -99.000   0.023   0.018   0.012   0.010   0.008   0.007   0.006   0.015   0.012   0.010   0.002   0.075
 1975 002    63   0.80   8.60   6.40 -99.000   0.144   0.018   0.127   0.144   0.018   0.127   0.000   0.000   20.59   20.59    0.99   19.60    0.00    0.00 -99.000 -99.000 -99.000   0.024   0.019   0.012   0.010   0.008   0.007   0.006   0.016   0.012   0.010   0.002   0.076
 1975 003    64   1.50   8.80   5.70 -99.000   0.269   0.033   0.236   0.269   0.033   0.236   0.000   0.000   20.86   20.86    1.02   19.84    0.00    0.00 -99.000 -99.000 -99.000   0.045   0.036   0.023   0.019   0.016   0.013   0.012   0.029   0.023   0.020   0.003   0.076
 1975 004    65   2.30   8.00   0.00 -99.000   0.381   0.047   0.334   0.381   0.047   0.333   0.000   0.000   21.24   21.24    1.07   20.17    0.00    0.00 -99.000 -99.000 -99.000   0.063   0.050   0.033   0.027   0.022   0.019   0.017   0.041   0.033   0.028   0.005   0.077
 1975 005    66   1.30   9.90   0.40 -99.000   0.223   0.028   0.196   0.223   0.028   0.196   0.000   0.000   21.47   21.47    1.10   20.37    0.00    0.00 -99.000 -99.000 -99.000   0.037   0.030   0.019   0.016   0.013   0.011   0.010   0.024   0.019   0.016   0.003   0.079
 1975 006    67   0.40   9.20   7.70 -99.000   0.074   0.009   0.065   0.074   0.009   0.064   0.000   0.000   21.54   21.54    1.11   20.43    0.00    0.00 -99.000 -99.000 -99.000   0.013   0.010   0.006   0.005   0.004   0.004   0.003   0.008   0.006   0.005   0.001   0.080
 1975 007    68   1.80   8.00   5.30 -99.000   0.318   0.040   0.278   0.318   0.040   0.278   0.000   0.000   21.86   21.86    1.15   20.71    0.00    0.00 -99.000 -99.000 -99.000   0.055   0.042   0.027   0.022   0.018   0.016   0.014   0.034   0.027   0.023   0.004   0.080
 1975 008    69   0.90   8.20   5.60 -99.000   0.160   0.020   0.140   0.160   0.020   0.140   0.000   0.000   22.02   22.02    1.17   20.85    0.00    0.00 -99.000 -99.000 -99.000   0.027   0.021   0.014   0.011   0.009   0.008   0.007   0.017   0.014   0.012   0.002   0.082
 1975 009    70   0.40   8.90   5.50 -99.000   0.072   0.009   0.063   0.072   0.009   0.062   0.000   0.000   22.09   22.09    1.18   20.91    0.00    0.00 -99.000 -99.000 -99.000   0.012   0.009   0.006   0.005   0.004   0.004   0.003   0.008   0.006   0.005   0.001   0.082
 1975 010    71   0.30   9.60   6.60 -99.000   0.055   0.007   0.048   0.055   0.007   0.048   0.000   0.000   22.15   22.14    1.18   20.96    0.00    0.00 -99.000 -99.000 -99.000   0.009   0.007   0.005   0.004   0.003   0.003   0.002   0.006   0.005   0.004   0.001   0.083
 1975 011    72   1.00  11.50   6.20 -99.000   0.188   0.024   0.164   0.188   0.024   0.163   0.000   0.000   22.33   22.33    1.21   21.12    0.00    0.00 -99.000 -99.000 -99.000   0.031   0.025   0.016   0.013   0.011   0.009   0.008   0.020   0.016   0.014   0.002   0.083
 1975 012    73   0.50   9.10   6.60 -99.000   0.091   0.012   0.079   0.091   0.012   0.079   0.000   0.000   22.42   22.42    1.22   21.20    0.00    0.00 -99.000 -99.000 -99.000   0.015   0.012   0.008   0.006   0.005   0.004   0.004   0.010   0.008   0.006   0.001   0.084
 1975 013    74   1.80   9.60   1.60 -99.000   0.313   0.042   0.271   0.313   0.042   0.271   0.000   0.000   22.74   22.73    1.26   21.47    0.00    0.00 -99.000 -99.000 -99.000   0.053   0.041   0.026   0.022   0.018   0.015   0.013   0.033   0.026   0.022   0.004   0.084
 1975 014    75   1.30  11.50   4.20 -99.000   0.239   0.032   0.207   0.239   0.032   0.207   0.000   0.000   22.98   22.97    1.29   21.68    0.00    0.00 -99.000 -99.000 -99.000   0.041   0.031   0.020   0.017   0.014   0.012   0.010   0.025   0.020   0.017   0.003   0.086
 1975 015    76   2.80  13.40   3.40 -99.000   0.528   0.072   0.456   0.527   0.072   0.455   0.000   0.000   23.50   23.50    1.36   22.14    0.00    0.00 -99.000 -99.000 -99.000   0.092   0.070   0.045   0.037   0.030   0.025   0.022   0.055   0.044   0.037   0.007   0.087
 1975 016    77   2.10   6.20   3.40 -99.000   0.351   0.049   0.303   0.351   0.049   0.302   0.000   0.000   23.86   23.85    1.41   22.44    0.00    0.00 -99.000 -99.000 -99.000   0.060   0.047   0.030   0.024   0.020   0.017   0.015   0.036   0.029   0.024   0.005   0.089
 1975 017    78   2.00   7.10   2.40 -99.000   0.336   0.047   0.289   0.335   0.047   0.289   0.000   0.000   24.19   24.19    1.46   22.73    0.00    0.00 -99.000 -99.000 -99.000   0.057   0.046   0.029   0.023   0.019   0.016   0.014   0.034   0.027   0.023   0.005   0.091
 1975 018    79   0.30   3.70   1.20 -99.000   0.030   0.004   0.026   0.030   0.004   0.026   0.000   0.000   24.22   24.22    1.46   22.75    0.00    0.00 -99.000 -99.000 -99.000   0.005   0.004   0.003   0.002   0.002   0.001   0.001   0.003   0.002   0.002   0.000   0.093
 1975 019    80   3.50   8.00  -0.90 -99.000   0.574   0.080   0.495   0.573   0.080   0.494   0.000   0.000   24.80   24.79    1.54   23.25    0.00    0.00 -99.000 -99.000 -99.000   0.096   0.079   0.052   0.040   0.033   0.028   0.024   0.057   0.046   0.038   0.008   0.093
 1975 020    81   1.00   7.80   0.00 -99.000   0.165   0.023   0.142   0.165   0.023   0.142   0.000   0.000   24.96   24.96    1.57   23.39    0.00    0.00 -99.000 -99.000 -99.000   0.027   0.022   0.015   0.011   0.009   0.008   0.007   0.017   0.013   0.011   0.002   0.095
 1975 021    82   3.70   9.50   0.60 -99.000   0.634   0.088   0.546   0.633   0.088   0.545   0.000   0.000   25.60   25.59    1.66   23.93    0.00    0.00 -99.000 -99.000 -99.000   0.104   0.086   0.058   0.044   0.036   0.031   0.027   0.066   0.052   0.043   0.009   0.096
 1975 022    83   0.20  10.20   2.70 -99.000   0.036   0.005   0.031   0.035   0.005   0.030   0.000   0.000   25.63   25.62    1.66   23.96    0.00    0.00 -99.000 -99.000 -99.000   0.006   0.005   0.003   0.002   0.002   0.002   0.002   0.004   0.003   0.002   0.000   0.100
 1975 023    84   2.30   8.10   1.60 -99.000   0.389   0.055   0.334   0.388   0.055   0.333   0.000   0.000   26.02   26.01    1.72   24.30    0.00    0.00 -99.000 -99.000 -99.000   0.064   0.051   0.034   0.027   0.022   0.019   0.017   0.040   0.032   0.027   0.005   0.100
 1975 024    85   3.50  10.20   2.80 -99.000   0.622   0.088   0.533   0.620   0.088   0.532   0.000   0.000   26.64   26.63    1.80   24.83    0.00    0.00 -99.000 -99.000 -99.000   0.102   0.083   0.054   0.043   0.035   0.030   0.027   0.063   0.051   0.043   0.009   0.102
 1975 025    86   1.90  11.60   4.00 -99.000   0.350   0.050   0.300   0.349   0.050   0.299   0.000   0.000   26.99   26.98    1.85   25.13    0.00    0.00 -99.000 -99.000 -99.000   0.058   0.046   0.030   0.025   0.020   0.017   0.015   0.036   0.029   0.024   0.005   0.105
 1975 026    87   4.20  10.40  -1.00 -99.000   0.717   0.105   0.612   0.715   0.105   0.610   0.000   0.000   27.71   27.70    1.96   25.74    0.00    0.00 -99.000 -99.000 -99.000   0.117   0.095   0.063   0.050   0.041   0.035   0.031   0.073   0.058   0.049   0.010   0.107
 1975 027    88   0.50   8.10   0.20 -99.000   0.083   0.012   0.071   0.083   0.012   0.071   0.000   0.000   27.79   27.78    1.97   25.81    0.00    0.00 -99.000 -99.000 -99.000   0.013   0.011   0.007   0.006   0.005   0.004   0.004   0.008   0.007   0.006   0.001   0.111
 1975 028    89   0.30   6.60   1.60 -99.000   0.049   0.007   0.042   0.049   0.007   0.042   0.000   0.000   27.84   27.83    1.98   25.85    0.00    0.00 -99.000 -99.000 -99.000   0.008   0.007   0.004   0.003   0.003   0.002   0.002   0.005   0.004   0.003   0.001   0.111
 1975 029    90   0.80  11.00   0.30 -99.000   0.140   0.021   0.119   0.140   0.021   0.119   0.000   0.000   27.98   27.97    2.00   25.97    0.00    0.00 -99.000 -99.000 -99.000   0.023   0.018   0.012   0.010   0.008   0.007   0.006   0.014   0.011   0.010   0.002   0.112
 1975 030    91   2.50  12.70   3.00 -99.000   0.463   0.069   0.395   0.462   0.069   0.393   0.000   0.000   28.44   28.43    2.07   26.36    0.00    0.00 -99.000 -99.000 -99.000   0.076   0.059   0.040   0.032   0.026   0.023   0.020   0.047   0.038   0.032   0.007   0.112
 1975 031    92   1.70   9.60   9.40 -99.000   0.320   0.048   0.272   0.320   0.048   0.271   0.000   0.000   28.76   28.75    2.11   26.63    0.00    0.00 -99.000 -99.000 -99.000   0.053   0.041   0.027   0.022   0.018   0.016   0.014   0.032   0.026   0.022   0.005   0.115
 1975 032    93   2.60  11.20   2.40 -99.000   0.466   0.073   0.394   0.465   0.073   0.392   0.000   0.000   29.23   29.21    2.19   27.03    0.00    0.00 -99.000 -99.000 -99.000   0.074   0.059   0.039   0.033   0.027   0.023   0.020   0.047   0.038   0.032   0.007   0.117
 1975 033    94   1.50   8.20   0.90 -99.000   0.251   0.039   0.211   0.250   0.039   0.210   0.000   0.000   29.48   29.46    2.23   27.24    0.00    0.00 -99.000 -99.000 -99.000   0.039   0.032   0.021   0.017   0.014   0.012   0.011   0.026   0.021   0.017   0.004   0.119
 1975 034    95   1.30   5.60   3.90 -99.000   0.215   0.034   0.181   0.214   0.034   0.180   0.000   0.000   29.70   29.68    2.26   27.42    0.00    0.00 -99.000 -99.000 -99.000   0.034   0.027   0.018   0.015   0.012   0.010   0.009   0.022   0.018   0.015   0.003   0.121
 1975 035    96   1.00   3.90   3.00 -99.000   0.106   0.017   0.089   0.106   0.017   0.089   0.000   0.000   29.80   29.78    2.28   27.51    0.00    0.00 -99.000 -99.000 -99.000   0.017   0.013   0.009   0.007   0.006   0.005   0.005   0.011   0.009   0.007   0.002   0.122
 1975 036    97   3.00   4.50   2.40 -99.000   0.356   0.056   0.300   0.355   0.056   0.299   0.000   0.000   30.16   30.14    2.33   27.80    0.00    0.00 -99.000 -99.000 -99.000   0.056   0.045   0.029   0.024   0.020   0.017   0.015   0.037   0.030   0.025   0.006   0.123
 1975 037    98   2.10   5.80  -0.80 -99.000   0.328   0.052   0.276   0.327   0.052   0.275   0.000   0.000   30.49   30.47    2.39   28.08    0.00    0.00 -99.000 -99.000 -99.000   0.052   0.042   0.027   0.022   0.018   0.016   0.014   0.034   0.027   0.023   0.005   0.125
 1975 038    99   4.20   8.80   1.00 -99.000   0.708   0.112   0.596   0.705   0.112   0.593   0.000   0.000   31.19   31.17    2.50   28.67    0.00    0.00 -99.000 -99.000 -99.000   0.111   0.090   0.058   0.049   0.040   0.034   0.030   0.073   0.059   0.050   0.011   0.126
 1975 039   100   3.60   5.10   2.10 -99.000   0.575   0.091   0.484   0.573   0.091   0.482   0.000   0.000   31.77   31.74    2.59   29.15    0.00    0.00 -99.000 -99.000 -99.000   0.090   0.073   0.047   0.039   0.032   0.028   0.024   0.060   0.048   0.040   0.009   0.130
 1975 040   101   5.50   5.70  -0.40 -99.000   0.861   0.137   0.724   0.858   0.137   0.721   0.000   0.000   32.63   32.60    2.73   29.88    0.00    0.00 -99.000 -99.000 -99.000   0.134   0.109   0.071   0.059   0.048   0.042   0.037   0.090   0.072   0.061   0.014   0.133
 1975 041   102   1.60   7.40  -1.60 -99.000   0.255   0.040   0.214   0.254   0.040   0.213   0.000   0.000   32.89   32.86    2.77   30.09    0.00    0.00 -99.000 -99.000 -99.000   0.041   0.032   0.021   0.017   0.014   0.012   0.011   0.026   0.021   0.018   0.004   0.136
 1975 042   103   1.00   8.10   1.00 -99.000   0.167   0.026   0.141   0.166   0.026   0.140   0.000   0.000   33.05   33.02    2.79   30.23    0.00    0.00 -99.000 -99.000 -99.000   0.028   0.021   0.014   0.011   0.009   0.008   0.007   0.017   0.014   0.011   0.003   0.137
 1975 043   104   1.80   8.90   6.40 -99.000   0.324   0.052   0.273   0.323   0.052   0.272   0.000   0.000   33.38   33.35    2.84   30.50    0.00    0.00 -99.000 -99.000 -99.000   0.055   0.042   0.027   0.022   0.018   0.015   0.013   0.032   0.026   0.022   0.005   0.138
 1975 044   105   3.00   7.40   5.70 -99.000   0.523   0.086   0.437   0.521   0.086   0.435   0.000   0.000   33.90   33.87    2.93   30.94    0.00    0.00 -99.000 -99.000 -99.000   0.087   0.067   0.043   0.035   0.029   0.024   0.021   0.052   0.041   0.035   0.009   0.140
 1975 045   106   2.80   5.70   0.30 -99.000   0.444   0.075   0.369   0.442   0.075   0.367   0.000   0.000   34.34   34.31    3.01   31.30    0.00    0.00 -99.000 -99.000 -99.000   0.072   0.058   0.038   0.030   0.024   0.021   0.018   0.043   0.034   0.029   0.007   0.143
 1975 046   107   1.50   3.80   1.00 -99.000   0.153   0.026   0.127   0.152   0.026   0.126   0.000   0.000   34.50   34.46    3.03   31.43    0.00    0.00 -99.000 -99.000 -99.000   0.024   0.020   0.013   0.011   0.009   0.007   0.006   0.015   0.012   0.010   0.003   0.145
 1975 047   108   2.40   7.60  -0.50 -99.000   0.389   0.066   0.324   0.388   0.066   0.322   0.000   0.000   34.89   34.85    3.10   31.75    0.00    0.00 -99.000 -99.000 -99.000   0.061   0.049   0.033   0.027   0.022   0.019   0.017   0.038   0.031   0.026   0.007   0.146
 1975 048   109   1.00  11.20   0.10 -99.000   0.174   0.029   0.144   0.173   0.029   0.144   0.000   0.000   35.06   35.02    3.13   31.89    0.00    0.00 -99.000 -99.000 -99.000   0.028   0.022   0.014   0.012   0.010   0.008   0.007   0.017   0.014   0.012   0.003   0.148
 1975 049   110   2.30   6.50   3.30 -99.000   0.384   0.066   0.318   0.382   0.066   0.316   0.000   0.000   35.44   35.40    3.19   32.21    0.00    0.00 -99.000 -99.000 -99.000   0.062   0.049   0.032   0.026   0.021   0.018   0.016   0.037   0.030   0.025   0.007   0.149
 1975 050   111   6.40   6.80   2.00 -99.000   1.056   0.184   0.872   1.051   0.184   0.867   0.000   0.000   36.50   36.45    3.38   33.08    0.00    0.00 -99.000 -99.000 -99.000   0.164   0.134   0.088   0.072   0.059   0.050   0.044   0.103   0.083   0.069   0.018   0.151
 1975 051   112   6.80   8.60  -0.10 -99.000   1.126   0.198   0.929   1.121   0.198   0.923   0.000   0.000   37.63   37.58    3.57   34.00    0.00    0.00 -99.000 -99.000 -99.000   0.174   0.141   0.092   0.076   0.062   0.053   0.047   0.112   0.090   0.076   0.020   0.158
 1975 052   113   6.80   6.70   0.20 -99.000   1.090   0.193   0.897   1.085   0.193   0.892   0.000   0.000   38.72   38.66    3.77   34.89    0.00    0.00 -99.000 -99.000 -99.000   0.168   0.135   0.088   0.073   0.060   0.051   0.045   0.109   0.087   0.074   0.019   0.164
 1975 053   114   6.40  10.90  -2.70 -99.000   1.067   0.190   0.877   1.062   0.190   0.872   0.000   0.000   39.78   39.72    3.96   35.77    0.00    0.00 -99.000 -99.000 -99.000   0.163   0.132   0.086   0.072   0.059   0.050   0.044   0.108   0.086   0.073   0.019   0.170
 1975 054   115   6.00  10.90  -0.60 -99.000   1.024   0.183   0.841   1.019   0.183   0.836   0.000   0.000   40.81   40.74    4.14   36.60    0.00    0.00 -99.000 -99.000 -99.000   0.156   0.126   0.082   0.069   0.056   0.048   0.042   0.104   0.083   0.070   0.018   0.176
 1975 055   116   8.10  11.30  -1.40 -99.000   1.379   0.250   1.128   1.372   0.250   1.122   0.000   0.000   42.19   42.11    4.39   37.72    0.00    0.00 -99.000 -99.000 -99.000   0.208   0.169   0.110   0.092   0.075   0.065   0.057   0.140   0.111   0.094   0.025   0.183
 1975 056   117   1.90   5.80  -1.10 -99.000   0.294   0.054   0.240   0.292   0.054   0.238   0.000   0.000   42.48   42.41    4.44   37.96    0.00    0.00 -99.000 -99.000 -99.000   0.044   0.036   0.023   0.020   0.016   0.014   0.012   0.030   0.024   0.020   0.005   0.192
 1975 057   118   7.40   8.50   1.70 -99.000   1.242   0.228   1.014   1.236   0.228   1.008   0.000   0.000   43.72   43.64    4.67   38.97    0.00    0.00 -99.000 -99.000 -99.000   0.185   0.151   0.099   0.083   0.068   0.058   0.051   0.126   0.100   0.085   0.023   0.193
 1975 058   119  10.30  10.60  -3.30 -99.000   1.691   0.314   1.376   1.682   0.314   1.368   0.000   0.000   45.41   45.32    4.99   40.34    0.00    0.00 -99.000 -99.000 -99.000   0.249   0.205   0.135   0.113   0.092   0.079   0.070   0.172   0.137   0.116   0.031   0.202
 1975 059   120   8.50  10.80  -1.60 -99.000   1.426   0.266   1.160   1.419   0.266   1.152   0.000   0.000   46.84   46.74    5.25   41.49    0.00    0.00 -99.000 -99.000 -99.000   0.206   0.172   0.114   0.095   0.078   0.067   0.059   0.146   0.116   0.099   0.027   0.211
 1975 060   121   4.30  12.60   1.30 -99.000   0.767   0.145   0.622   0.763   0.145   0.618   0.000   0.000   47.61   47.51    5.40   42.11    0.00    0.00 -99.000 -99.000 -99.000   0.109   0.092   0.061   0.051   0.042   0.036   0.032   0.079   0.063   0.053   0.014   0.220
 1975 061   122   3.80  11.10   3.50 -99.000   0.676   0.131   0.546   0.673   0.131   0.542   0.000   0.000   48.28   48.18    5.53   42.65    0.00    0.00 -99.000 -99.000 -99.000   0.103   0.080   0.052   0.044   0.036   0.031   0.027   0.068   0.054   0.046   0.013   0.225
 1975 062   123   4.00  11.00   6.60 -99.000   0.741   0.147   0.594   0.737   0.147   0.590   0.000   0.000   49.02   48.92    5.67   43.24    0.00    0.00 -99.000 -99.000 -99.000   0.118   0.089   0.056   0.047   0.039   0.033   0.029   0.072   0.058   0.049   0.015   0.230
 1975 063   124   5.90  11.10   2.40 -99.000   1.043   0.216   0.827   1.037   0.216   0.822   0.000   0.000   50.07   49.95    5.89   44.06    0.00    0.00 -99.000 -99.000 -99.000   0.164   0.129   0.079   0.065   0.053   0.046   0.040   0.099   0.079   0.067   0.022   0.235
 1975 064   125   2.10   7.10   5.10 -99.000   0.358   0.076   0.283   0.356   0.076   0.281   0.000   0.000   50.42   50.31    5.97   44.34    0.00    0.00 -99.000 -99.000 -99.000   0.055   0.044   0.028   0.023   0.018   0.016   0.014   0.034   0.027   0.023   0.008   0.242
 1975 065   126   2.70   9.50   4.40 -99.000   0.475   0.101   0.373   0.472   0.101   0.370   0.000   0.000   50.90   50.78    6.07   44.71    0.00    0.00 -99.000 -99.000 -99.000   0.073   0.059   0.037   0.030   0.024   0.020   0.018   0.044   0.035   0.030   0.010   0.245
 1975 066   127   3.50   9.80   4.40 -99.000   0.619   0.135   0.484   0.616   0.135   0.481   0.000   0.000   51.52   51.40    6.20   45.19    0.00    0.00 -99.000 -99.000 -99.000   0.095   0.077   0.050   0.039   0.032   0.027   0.023   0.056   0.044   0.038   0.014   0.248
 1975 067   128   3.40   8.40   0.60 -99.000   0.562   0.125   0.437   0.559   0.125   0.434   0.000   0.000   52.08   51.96    6.33   45.63    0.00    0.00 -99.000 -99.000 -99.000   0.084   0.069   0.046   0.035   0.029   0.024   0.021   0.051   0.040   0.034   0.013   0.253
 1975 068   129   2.80   6.10   3.40 -99.000   0.460   0.103   0.357   0.457   0.103   0.354   0.000   0.000   52.54   52.41    6.43   45.98    0.00    0.00 -99.000 -99.000 -99.000   0.069   0.054   0.037   0.029   0.024   0.020   0.018   0.042   0.033   0.028   0.010   0.257
 1975 069   130   2.50   4.60   1.90 -99.000   0.299   0.067   0.231   0.297   0.067   0.229   0.000   0.000   52.84   52.71    6.50   46.21    0.00    0.00 -99.000 -99.000 -99.000   0.043   0.035   0.023   0.019   0.016   0.013   0.012   0.028   0.022   0.018   0.007   0.261
 1975 070   131   2.90   5.60   2.40 -99.000   0.465   0.105   0.360   0.462   0.105   0.357   0.000   0.000   53.30   53.17    6.60   46.57    0.00    0.00 -99.000 -99.000 -99.000   0.068   0.055   0.036   0.029   0.024   0.021   0.018   0.042   0.034   0.029   0.011   0.263
 1975 071   132   0.50   5.50   4.10 -99.000   0.082   0.019   0.063   0.081   0.019   0.063   0.000   0.000   53.39   53.25    6.62   46.63    0.00    0.00 -99.000 -99.000 -99.000   0.012   0.010   0.006   0.005   0.004   0.004   0.003   0.007   0.006   0.005   0.002   0.266
 1975 072   133   0.80   4.40   3.00 -99.000   0.093   0.021   0.072   0.092   0.021   0.071   0.000   0.000   53.48   53.35    6.64   46.70    0.00    0.00 -99.000 -99.000 -99.000   0.014   0.011   0.007   0.006   0.005   0.004   0.004   0.008   0.007   0.006   0.002   0.267
 1975 073   134   4.70   4.10   2.00 -99.000   0.509   0.117   0.391   0.505   0.117   0.388   0.000   0.000   53.99   53.85    6.76   47.09    0.00    0.00 -99.000 -99.000 -99.000   0.075   0.059   0.040   0.032   0.026   0.022   0.020   0.046   0.037   0.031   0.012   0.267
 1975 074   135   3.10   4.70   0.50 -99.000   0.371   0.086   0.285   0.368   0.086   0.283   0.000   0.000   54.36   54.22    6.85   47.37    0.00    0.00 -99.000 -99.000 -99.000   0.055   0.043   0.028   0.023   0.019   0.016   0.014   0.034   0.027   0.023   0.009   0.271
 1975 075   136   9.90   4.90   1.00 -99.000   1.240   0.286   0.953   1.232   0.286   0.945   0.000   0.000   55.60   55.45    7.13   48.32    0.00    0.00 -99.000 -99.000 -99.000   0.181   0.142   0.094   0.078   0.064   0.055   0.049   0.114   0.091   0.077   0.029   0.274
 1975 076   137   9.90   5.70  -1.40 -99.000   1.515   0.351   1.165   1.506   0.351   1.155   0.000   0.000   57.11   56.96    7.48   49.47    0.00    0.00 -99.000 -99.000 -99.000   0.218   0.174   0.114   0.095   0.078   0.067   0.059   0.141   0.113   0.096   0.035   0.282
 1975 077   138  11.20   5.70  -1.60 -99.000   1.706   0.395   1.311   1.695   0.395   1.300   0.000   0.000   58.82   58.65    7.88   50.77    0.00    0.01 -99.000 -99.000 -99.000   0.246   0.195   0.128   0.107   0.088   0.075   0.066   0.159   0.128   0.108   0.040   0.288
 1975 078   139   2.30   4.30  -1.40 -99.000   0.247   0.057   0.190   0.245   0.057   0.188   0.000   0.000   59.07   58.90    7.93   50.96    0.00    0.01 -99.000 -99.000 -99.000   0.036   0.028   0.018   0.015   0.013   0.011   0.010   0.023   0.019   0.016   0.006   0.295
 1975 079   140   0.80   4.50   0.60 -99.000   0.092   0.021   0.070   0.091   0.021   0.070   0.000   0.000   59.16   58.99    7.96   51.03    0.00    0.01 -99.000 -99.000 -99.000   0.013   0.011   0.007   0.006   0.005   0.004   0.004   0.009   0.007   0.006   0.002   0.296
 1975 080   141   3.30   6.50   3.20 -99.000   0.541   0.125   0.416   0.537   0.125   0.412   0.000   0.000   59.70   59.53    8.08   51.44    0.00    0.01 -99.000 -99.000 -99.000   0.080   0.065   0.041   0.033   0.027   0.023   0.020   0.049   0.040   0.033   0.013   0.296
 1975 081   142   5.40   7.40   1.70 -99.000   0.887   0.207   0.680   0.881   0.207   0.674   0.000   0.000   60.59   60.41    8.29   52.11    0.00    0.01 -99.000 -99.000 -99.000   0.132   0.106   0.068   0.055   0.044   0.038   0.033   0.080   0.064   0.054   0.021   0.301
 1975 082   143   7.30   8.80   3.10 -99.000   1.247   0.294   0.953   1.238   0.294   0.944   0.000   0.000   61.83   61.65    8.58   53.06    0.00    0.01 -99.000 -99.000 -99.000   0.180   0.145   0.095   0.079   0.064   0.054   0.047   0.113   0.091   0.077   0.029   0.308
 1975 083   144   8.50   8.10   3.40 -99.000   1.435   0.343   1.092   1.425   0.343   1.082   0.000   0.000   63.27   63.07    8.93   54.14    0.00    0.01 -99.000 -99.000 -99.000   0.204   0.164   0.108   0.089   0.073   0.062   0.054   0.132   0.106   0.089   0.034   0.319
 1975 084   145   9.60   8.90   0.40 -99.000   1.584   0.386   1.198   1.573   0.386   1.187   0.000   0.000   64.85   64.65    9.31   55.33    0.00    0.01 -99.000 -99.000 -99.000   0.222   0.180   0.117   0.098   0.080   0.068   0.060   0.146   0.117   0.099   0.039   0.331
 1975 085   146   3.20   6.60   3.80 -99.000   0.527   0.130   0.397   0.523   0.130   0.393   0.000   0.000   65.38   65.17    9.44   55.72    0.00    0.01 -99.000 -99.000 -99.000   0.076   0.060   0.039   0.032   0.026   0.022   0.020   0.048   0.038   0.032   0.013   0.345
 1975 086   147   5.40   4.50  -0.10 -99.000   0.614   0.153   0.460   0.610   0.153   0.456   0.000   0.000   65.99   65.78    9.60   56.18    0.00    0.01 -99.000 -99.000 -99.000   0.091   0.073   0.045   0.037   0.030   0.025   0.022   0.054   0.043   0.036   0.015   0.349
 1975 087   148  15.80   5.10  -2.20 -99.000   2.364   0.592   1.773   2.348   0.592   1.756   0.000   0.000   68.36   68.13   10.19   57.93    0.00    0.01 -99.000 -99.000 -99.000   0.339   0.275   0.179   0.145   0.117   0.098   0.086   0.209   0.167   0.141   0.059   0.353
 1975 088   149   9.60   6.50  -1.00 -99.000   1.493   0.373   1.119   1.482   0.373   1.109   0.000   0.000   69.85   69.61   10.56   59.04    0.00    0.01 -99.000 -99.000 -99.000   0.214   0.170   0.111   0.092   0.075   0.063   0.055   0.133   0.106   0.090   0.037   0.360
 1975 089   150  10.80   4.70  -0.50 -99.000   1.268   0.318   0.950   1.260   0.318   0.941   0.000   0.000   71.12   70.87   10.88   59.98    0.00    0.01 -99.000 -99.000 -99.000   0.186   0.143   0.093   0.078   0.063   0.054   0.047   0.112   0.090   0.076   0.032   0.368
 1975 090   151  10.20   8.10  -1.40 -99.000   1.629   0.409   1.220   1.618   0.409   1.208   0.000   0.000   72.75   72.49   11.29   61.19    0.00    0.01 -99.000 -99.000 -99.000   0.237   0.183   0.119   0.099   0.081   0.069   0.061   0.145   0.116   0.098   0.041   0.375
 1975 091   152   9.30   7.20   1.10 -99.000   1.503   0.379   1.124   1.492   0.379   1.113   0.000   0.000   74.25   73.98   11.67   62.30    0.00    0.01 -99.000 -99.000 -99.000   0.219   0.170   0.110   0.091   0.074   0.064   0.056   0.133   0.106   0.090   0.038   0.385
 1975 092   153   8.50   6.20   3.60 -99.000   1.392   0.354   1.038   1.382   0.354   1.028   0.000   0.000   75.64   75.36   12.02   63.33    0.00    0.01 -99.000 -99.000 -99.000   0.205   0.157   0.101   0.084   0.068   0.058   0.051   0.123   0.098   0.083   0.035   0.397
 1975 093   154   7.80   5.10  -0.10 -99.000   1.196   0.308   0.889   1.188   0.308   0.880   0.000   0.000   76.84   76.55   12.33   64.21    0.00    0.01 -99.000 -99.000 -99.000   0.174   0.137   0.087   0.072   0.058   0.050   0.044   0.104   0.083   0.070   0.031   0.410
 1975 094   155   9.40   5.40  -0.40 -99.000   1.445   0.372   1.072   1.434   0.372   1.062   0.000   0.000   78.28   77.98   12.70   65.27    0.00    0.01 -99.000 -99.000 -99.000   0.206   0.165   0.107   0.087   0.071   0.060   0.053   0.126   0.101   0.085   0.037   0.416
 1975 095   156   9.10   4.90  -1.20 -99.000   1.100   0.284   0.816   1.092   0.284   0.808   0.000   0.000   79.38   79.07   12.98   66.08    0.00    0.01 -99.000 -99.000 -99.000   0.157   0.127   0.081   0.066   0.054   0.046   0.040   0.096   0.077   0.065   0.028   0.423
 1975 096   157  10.50   7.20  -0.30 -99.000   1.670   0.431   1.239   1.658   0.431   1.226   0.000   0.000   81.05   80.73   13.41   67.31    0.00    0.01 -99.000 -99.000 -99.000   0.235   0.189   0.123   0.102   0.083   0.070   0.062   0.146   0.117   0.099   0.043   0.428
 1975 097   158   8.10   9.00  -0.80 -99.000   1.318   0.342   0.976   1.309   0.342   0.966   0.000   0.000   82.37   82.04   13.76   68.27    0.00    0.01 -99.000 -99.000 -99.000   0.188   0.148   0.096   0.080   0.065   0.055   0.049   0.115   0.092   0.078   0.034   0.439
 1975 098   159  14.40   5.70   0.70 -99.000   2.254   0.590   1.664   2.237   0.590   1.647   0.000   0.000   84.62   84.28   14.35   69.92    0.00    0.01 -99.000 -99.000 -99.000   0.325   0.256   0.164   0.135   0.110   0.094   0.082   0.195   0.156   0.131   0.059   0.450
 1975 099   160  13.30   5.20  -1.90 -99.000   1.995   0.524   1.471   1.980   0.524   1.456   0.000   0.000   86.62   86.26   14.87   71.38    0.00    0.01 -99.000 -99.000 -99.000   0.279   0.224   0.146   0.120   0.098   0.084   0.073   0.174   0.139   0.118   0.052   0.464
 1975 100   161  11.30   7.50  -1.70 -99.000   1.770   0.464   1.305   1.756   0.464   1.292   0.000   0.000   88.39   88.01   15.33   72.67    0.00    0.01 -99.000 -99.000 -99.000   0.251   0.196   0.128   0.106   0.087   0.074   0.065   0.155   0.124   0.105   0.046   0.471
 1975 101   162   7.30  10.50   2.60 -99.000   1.269   0.334   0.935   1.259   0.334   0.925   0.000   0.000   89.66   89.27   15.67   73.59    0.00    0.01 -99.000 -99.000 -99.000   0.179   0.139   0.091   0.076   0.062   0.053   0.047   0.112   0.090   0.076   0.033   0.482
 1975 102   163  11.50  15.00   5.60 -99.000   2.206   0.595   1.612   2.189   0.595   1.595   0.000   0.000   91.86   91.46   16.26   75.19    0.00    0.01 -99.000 -99.000 -99.000   0.303   0.241   0.157   0.131   0.107   0.092   0.081   0.195   0.156   0.133   0.059   0.493
 1975 103   164   9.90  16.00   3.90 -99.000   1.887   0.539   1.347   1.872   0.539   1.332   0.000   0.000   93.75   93.33   16.80   76.52    0.00    0.01 -99.000 -99.000 -99.000   0.254   0.200   0.130   0.109   0.089   0.076   0.067   0.164   0.131   0.111   0.054   0.512
 1975 104   165   5.30  12.30   7.80 -99.000   0.993   0.298   0.695   0.985   0.298   0.687   0.000   0.000   94.74   94.32   17.10   77.21    0.00    0.01 -99.000 -99.000 -99.000   0.136   0.105   0.067   0.055   0.045   0.039   0.034   0.083   0.066   0.056   0.030   0.527
 1975 105   166   6.20  11.50   6.50 -99.000   1.133   0.354   0.779   1.124   0.354   0.770   0.000   0.000   95.88   95.44   17.45   77.98    0.00    0.01 -99.000 -99.000 -99.000   0.155   0.120   0.076   0.062   0.050   0.043   0.038   0.092   0.073   0.062   0.035   0.535
 1975 106   167  13.40  14.10   2.80 -99.000   2.449   0.788   1.661   2.430   0.788   1.641   0.000   0.000   98.33   97.87   18.24   79.62    0.00    0.01 -99.000 -99.000 -99.000   0.328   0.257   0.163   0.133   0.107   0.091   0.080   0.195   0.156   0.132   0.079   0.545
 1975 107   168   4.50  12.60   6.90 -99.000   0.836   0.275   0.561   0.830   0.275   0.554   0.000   0.000   99.16   98.70   18.52   80.17    0.00    0.01 -99.000 -99.000 -99.000   0.109   0.085   0.055   0.045   0.037   0.031   0.027   0.066   0.053   0.045   0.028   0.566
 1975 108   169  13.40  16.00   8.80 -99.000   2.662   0.903   1.759   2.641   0.903   1.737   0.000   0.000  101.82  101.34   19.42   81.91    0.00    0.01 -99.000 -99.000 -99.000   0.338   0.273   0.179   0.143   0.115   0.097   0.085   0.204   0.164   0.138   0.090   0.573
 1975 109   170  10.50  13.10   9.60 -99.000   2.012   0.708   1.305   1.996   0.708   1.288   0.000   0.000  103.84  103.34   20.13   83.20    0.00    0.01 -99.000 -99.000 -99.000   0.245   0.201   0.132   0.106   0.086   0.073   0.064   0.155   0.124   0.104   0.071   0.594
 1975 110   171  14.80  15.00   2.80 -99.000   2.715   0.984   1.731   2.692   0.984   1.708   0.000   0.000  106.55  106.03   21.11   84.91    0.00    0.01 -99.000 -99.000 -99.000   0.322   0.262   0.171   0.140   0.114   0.097   0.085   0.208   0.167   0.141   0.098   0.611
 1975 111   172  12.00  14.90   7.20 -99.000   2.290   0.849   1.442   2.271   0.849   1.422   0.000   0.000  108.84  108.30   21.96   86.33    0.00    0.01 -99.000 -99.000 -99.000   0.263   0.217   0.141   0.117   0.096   0.081   0.072   0.176   0.141   0.119   0.085   0.634
 1975 112   173  17.20  19.90   5.70 -99.000   3.466   1.322   2.143   3.436   1.322   2.114   0.000   0.000  112.31  111.74   23.28   88.44    0.00    0.02 -99.000 -99.000 -99.000   0.383   0.321   0.210   0.175   0.143   0.122   0.107   0.263   0.211   0.178   0.132   0.652
 1975 113   174  11.90  14.80   8.70 -99.000   2.285   0.907   1.379   2.196   0.907   1.289   0.000   0.000  114.59  113.94   24.19   89.73    0.00    0.02 -99.000 -99.000 -99.000   1.029   0.152   0.042   0.022   0.013   0.008   0.006   0.010   0.005   0.003   0.091   0.678
 1975 114   175  19.30  19.60   4.20 -99.000   3.783   1.547   2.236   2.730   1.547   1.182   0.000   0.001  118.38  116.67   25.74   90.91    0.00    0.02 -99.000 -99.000 -99.000   0.925   0.150   0.042   0.022   0.012   0.008   0.006   0.010   0.005   0.003   0.155   0.695
 1975 115   176   9.30  17.90   5.40 -99.000   1.791   0.753   1.038   1.775   0.753   1.021   0.000   0.001  120.17  118.44   26.49   91.93    0.00    0.02 -99.000 -99.000 -99.000   0.791   0.134   0.037   0.020   0.011   0.007   0.005   0.009   0.005   0.003   0.075   0.724
 1975 116   177  11.60  17.40  10.50 -99.000   2.324   1.001   1.322   2.089   1.001   1.087   0.000   0.001  122.49  120.53   27.49   93.02    0.00    0.02 -99.000 -99.000 -99.000   0.835   0.145   0.041   0.022   0.012   0.008   0.006   0.010   0.005   0.003   0.100   0.737
 1975 117   178   2.60  13.60   7.60 -99.000   0.478   0.211   0.266   0.473   0.211   0.261   0.000   0.001  122.97  121.00   27.70   93.28    0.00    0.02 -99.000 -99.000 -99.000   0.196   0.037   0.011   0.006   0.003   0.002   0.001   0.003   0.001   0.001   0.021   0.753
 1975 118   179  13.70  19.30   8.40 -99.000   2.746   1.238   1.508   2.215   1.238   0.976   0.000   0.001  125.71  123.22   28.94   94.26    0.00    0.02 -99.000 -99.000 -99.000   0.728   0.143   0.040   0.022   0.012   0.008   0.006   0.010   0.005   0.003   0.124   0.757
 1975 119   180  13.00  12.30   6.90 -99.000   2.311   1.075   1.236   1.993   1.075   0.917   0.000   0.001  128.02  125.21   30.02   95.17    0.00    0.02 -99.000 -99.000 -99.000   0.671   0.140   0.040   0.021   0.012   0.008   0.006   0.010   0.005   0.003   0.108   0.776
 1975 120   181  16.80  13.70   2.20 -99.000   2.902   1.371   1.531   2.301   1.371   0.929   0.000   0.001  130.93  127.51   31.39   96.10    0.00    0.02 -99.000 -99.000 -99.000   0.686   0.138   0.040   0.021   0.012   0.008   0.006   0.010   0.005   0.003   0.137   0.794
 1975 121   182   8.80  14.00   6.10 -99.000   1.591   0.758   0.833   1.575   0.758   0.816   0.000   0.001  132.52  129.09   32.14   96.92    0.00    0.02 -99.000 -99.000 -99.000   0.602   0.121   0.035   0.019   0.011   0.007   0.005   0.009   0.005   0.003   0.076   0.817
 1975 122   183  12.20  15.70   9.70 -99.000   2.337   1.115   1.221   2.190   1.115   1.074   0.000   0.001  134.85  131.28   33.26   97.99    0.00    0.02 -99.000 -99.000 -99.000   0.836   0.134   0.039   0.021   0.012   0.008   0.006   0.010   0.005   0.003   0.112   0.829
 1975 123   184  17.60  11.40   3.20 -99.000   2.985   1.432   1.553   2.642   1.432   1.209   0.000   0.001  137.84  133.92   34.69   99.20    0.00    0.02 -99.000 -99.000 -99.000   0.974   0.132   0.039   0.021   0.012   0.008   0.005   0.010   0.005   0.003   0.143   0.845
 1975 124   185  19.90  11.40   3.70 -99.000   3.384   1.610   1.774   2.713   1.610   1.102   0.000   0.001  141.22  136.63   36.30  100.30    0.00    0.02 -99.000 -99.000 -99.000   0.870   0.130   0.038   0.021   0.012   0.008   0.005   0.010   0.005   0.003   0.161   0.868
 1975 125   186  17.10  13.30   3.20 -99.000   2.973   1.404   1.569   2.408   1.404   1.002   0.000   0.001  144.20  139.04   37.71  101.31    0.00    0.03 -99.000 -99.000 -99.000   0.774   0.127   0.038   0.021   0.012   0.008   0.005   0.010   0.005   0.003   0.140   0.895
 1975 126   187  17.90  14.80   4.20 -99.000   3.208   1.521   1.687   2.437   1.521   0.914   0.000   0.001  147.41  141.48   39.23  102.22    0.00    0.03 -99.000 -99.000 -99.000   0.689   0.125   0.037   0.020   0.012   0.008   0.005   0.010   0.005   0.003   0.152   0.918
 1975 127   188   8.70  15.60   5.50 -99.000   1.593   0.774   0.819   1.571   0.774   0.796   0.000   0.001  149.00  143.05   40.00  103.02    0.00    0.03 -99.000 -99.000 -99.000   0.635   0.094   0.025   0.014   0.008   0.005   0.004   0.006   0.004   0.002   0.077   0.942
 1975 128   189  17.50  16.90   7.50 -99.000   3.378   1.662   1.716   3.333   1.662   1.670   0.000   0.002  152.38  146.38   41.66  104.69    0.00    0.03 -99.000 -99.000 -99.000   0.335   0.260   0.146   0.128   0.105   0.092   0.082   0.208   0.170   0.144   0.166   0.953
 1975 129   190  17.30  14.50   6.10 -99.000   3.170   1.587   1.582   2.961   1.587   1.372   0.000   0.002  155.55  149.34   43.25  106.06    0.00    0.03 -99.000 -99.000 -99.000   1.121   0.153   0.036   0.020   0.011   0.008   0.005   0.009   0.005   0.003   0.159   0.976
 1975 130   191  17.30  14.60   7.30 -99.000   3.198   1.625   1.574   2.890   1.625   1.263   0.000   0.002  158.74  152.23   44.87  107.32    0.00    0.03 -99.000 -99.000 -99.000   1.016   0.150   0.036   0.020   0.011   0.008   0.005   0.009   0.005   0.003   0.162   0.999
 1975 131   192  11.60  11.80   6.70 -99.000   2.036   1.050   0.986   2.008   1.050   0.956   0.000   0.002  160.78  154.24   45.92  108.28    0.00    0.04 -99.000 -99.000 -99.000   0.755   0.121   0.029   0.016   0.009   0.006   0.004   0.008   0.004   0.003   0.105   1.021
 1975 132   193   8.70  13.10   1.40 -99.000   1.470   0.764   0.707   1.449   0.764   0.683   0.000   0.002  162.25  155.69   46.69  108.96    0.00    0.04 -99.000 -99.000 -99.000   0.553   0.079   0.018   0.010   0.006   0.004   0.003   0.005   0.003   0.002   0.076   1.036
 1975 133   194  11.80  14.10   7.80 -99.000   2.180   1.133   1.047   2.147   1.133   1.012   0.000   0.003  164.43  157.83   47.82  109.97    0.00    0.04 -99.000 -99.000 -99.000   0.211   0.156   0.084   0.075   0.062   0.055   0.049   0.126   0.104   0.088   0.113   1.047
 1975 134   195  10.30  13.70   6.60 -99.000   1.868   0.976   0.892   1.839   0.976   0.860   0.000   0.003  166.30  159.67   48.80  110.83    0.00    0.05 -99.000 -99.000 -99.000   0.176   0.134   0.071   0.064   0.053   0.047   0.042   0.108   0.089   0.076   0.098   1.062
 1975 135   196   5.20  10.20   6.70 -99.000   0.893   0.468   0.425   0.878   0.468   0.408   0.000   0.003  167.19  160.55   49.26  111.24    0.00    0.05 -99.000 -99.000 -99.000   0.082   0.064   0.034   0.030   0.025   0.022   0.020   0.052   0.043   0.036   0.047   1.075
 1975 136   197   2.90   7.80   6.00 -99.000   0.475   0.248   0.228   0.467   0.248   0.217   0.000   0.003  167.67  161.02   49.51  111.46    0.00    0.05 -99.000 -99.000 -99.000   0.044   0.035   0.021   0.017   0.013   0.011   0.010   0.026   0.021   0.018   0.025   1.081
 1975 137   198   1.40   7.90   6.40 -99.000   0.232   0.120   0.112   0.228   0.120   0.105   0.000   0.003  167.90  161.25   49.63  111.56    0.00    0.05 -99.000 -99.000 -99.000   0.021   0.017   0.012   0.008   0.006   0.006   0.005   0.012   0.010   0.008   0.012   1.084
 1975 138   199   5.40   9.90   6.80 -99.000   0.927   0.475   0.452   0.911   0.475   0.432   0.000   0.004  168.83  162.16   50.11  111.99    0.00    0.06 -99.000 -99.000 -99.000   0.083   0.068   0.046   0.036   0.030   0.025   0.021   0.049   0.040   0.034   0.047   1.086
 1975 139   200  27.00  17.40   3.10 -99.000   4.999   2.552   2.447   4.907   2.552   2.351   0.000   0.004  173.82  167.06   52.66  114.34    0.00    0.06 -99.000 -99.000 -99.000   0.446   0.361   0.240   0.195   0.160   0.137   0.117   0.279   0.226   0.191   0.255   1.092
 1975 140   201  23.50  20.50   3.00 -99.000   4.527   2.359   2.168   4.443   2.359   2.080   0.000   0.004  178.35  171.51   55.02  116.42    0.00    0.07 -99.000 -99.000 -99.000   0.382   0.317   0.208   0.172   0.141   0.121   0.105   0.256   0.205   0.173   0.236   1.129
 1975 141   202  23.30  16.20   7.20 -99.000   4.387   2.293   2.094   4.305   2.293   2.009   0.000   0.004  182.74  175.81   57.31  118.43    0.00    0.07 -99.000 -99.000 -99.000   0.356   0.304   0.201   0.167   0.137   0.118   0.102   0.252   0.202   0.171   0.229   1.160
 1975 142   203   8.70  10.40   5.20 -99.000   1.466   0.770   0.696   1.439   0.770   0.665   0.000   0.004  184.21  177.25   58.08  119.10    0.00    0.07 -99.000 -99.000 -99.000   0.528   0.079   0.022   0.012   0.007   0.004   0.003   0.005   0.003   0.002   0.077   1.190
 1975 143   204  16.80  12.40   2.10 -99.000   2.825   1.476   1.349   2.669   1.476   1.189   0.000   0.004  187.03  179.92   59.56  120.29    0.00    0.08 -99.000 -99.000 -99.000   0.935   0.147   0.041   0.022   0.012   0.008   0.006   0.010   0.005   0.003   0.148   1.201
 1975 144   205   7.50   9.80   2.40 -99.000   1.210   0.628   0.582   1.185   0.628   0.554   0.000   0.004  188.24  181.10   60.18  120.84    0.00    0.08 -99.000 -99.000 -99.000   0.441   0.065   0.018   0.010   0.006   0.004   0.002   0.004   0.002   0.001   0.063   1.222
 1975 145   206  13.20  13.10   6.30 -99.000   2.354   1.211   1.143   2.304   1.211   1.088   0.000   0.005  190.59  183.41   61.39  121.93    0.00    0.09 -99.000 -99.000 -99.000   0.888   0.115   0.033   0.017   0.010   0.006   0.004   0.008   0.004   0.003   0.121   1.231
 1975 146   207  22.80  17.20   6.30 -99.000   4.309   2.256   2.053   3.551   2.256   1.290   0.000   0.005  194.90  186.96   63.65  123.22    0.00    0.09 -99.000 -99.000 -99.000   1.043   0.141   0.040   0.021   0.012   0.008   0.006   0.010   0.005   0.003   0.226   1.248
 1975 147   208  19.50  17.80   7.40 -99.000   3.740   1.999   1.741   3.173   1.999   1.168   0.000   0.005  198.64  190.13   65.65  124.39    0.00    0.10 -99.000 -99.000 -99.000   0.926   0.138   0.040   0.021   0.012   0.008   0.005   0.010   0.005   0.003   0.200   1.278
 1975 148   209  18.70  19.50   9.30 -99.000   3.726   2.008   1.718   3.073   2.008   1.060   0.000   0.005  202.37  193.21   67.66  125.45    0.00    0.10 -99.000 -99.000 -99.000   0.822   0.135   0.039   0.021   0.012   0.008   0.005   0.010   0.005   0.003   0.201   1.303
 1975 149   210   7.50  11.60   6.40 -99.000   1.292   0.697   0.596   1.265   0.697   0.564   0.000   0.005  203.66  194.47   68.35  126.01    0.00    0.11 -99.000 -99.000 -99.000   0.428   0.077   0.022   0.012   0.007   0.005   0.003   0.006   0.003   0.002   0.070   1.326
 1975 150   211  14.50  10.20   5.20 -99.000   2.411   1.294   1.117   2.232   1.294   0.932   0.000   0.006  206.07  196.70   69.65  126.94    0.00    0.11 -99.000 -99.000 -99.000   0.699   0.131   0.038   0.021   0.012   0.008   0.005   0.010   0.005   0.003   0.129   1.335
 1975 151   212  19.30  12.40  -0.10 -99.000   3.133   1.691   1.441   2.549   1.691   0.853   0.000   0.005  209.21  199.25   71.34  127.80    0.00    0.12 -99.000 -99.000 -99.000   0.623   0.129   0.038   0.021   0.012   0.008   0.005   0.010   0.005   0.003   0.169   1.354
 1975 152   213  16.20  13.10   2.00 -99.000   2.715   1.470   1.245   2.260   1.470   0.785   0.000   0.005  211.92  201.51   72.81  128.58    0.00    0.12 -99.000 -99.000 -99.000   0.558   0.126   0.037   0.020   0.012   0.008   0.005   0.009   0.005   0.003   0.147   1.285
 1975 153   214  18.00  12.10   3.30 -99.000   3.007   1.637   1.370   2.643   1.637   1.000   0.000   0.006  214.93  204.15   74.45  129.58    0.00    0.13 -99.000 -99.000 -99.000   0.777   0.123   0.037   0.020   0.012   0.008   0.005   0.009   0.005   0.003   0.164   1.281
 1975 154   215  20.60  12.60   2.30 -99.000   3.467   1.898   1.569   3.094   1.898   1.189   0.000   0.007  218.39  207.25   76.34  130.77    0.00    0.13 -99.000 -99.000 -99.000   0.970   0.121   0.036   0.020   0.012   0.008   0.005   0.009   0.005   0.003   0.190   1.423
 1975 155   216  14.00  14.60   2.20 -99.000   2.422   1.333   1.089   2.369   1.333   1.030   0.000   0.006  220.82  209.62   77.68  131.80    0.00    0.14 -99.000 -99.000 -99.000   0.837   0.105   0.032   0.018   0.010   0.007   0.005   0.008   0.005   0.003   0.133   1.450
 1975 156   217  15.10  19.40   5.70 -99.000   2.904   1.609   1.295   2.749   1.609   1.133   0.000   0.007  223.72  212.37   79.29  132.93    0.00    0.15 -99.000 -99.000 -99.000   0.920   0.116   0.036   0.020   0.011   0.008   0.005   0.009   0.005   0.003   0.161   1.468
 1975 157   218  26.70  24.00  11.50 -99.000   5.726   3.214   2.512   4.250   3.214   1.030   0.000   0.006  229.45  216.62   82.50  133.96    0.00    0.15 -99.000 -99.000 -99.000   0.820   0.113   0.035   0.020   0.011   0.008   0.005   0.009   0.005   0.003   0.321   1.488
 1975 158   219  25.90  25.40  10.70 -99.000   5.595   3.194   2.401   4.120   3.194   0.920   0.000   0.006  235.04  220.74   85.69  134.88    0.00    0.16 -99.000 -99.000 -99.000   0.716   0.109   0.034   0.019   0.011   0.007   0.005   0.009   0.005   0.003   0.319   1.522
 1975 159   220  27.00  23.80   7.60 -99.000   5.560   3.139   2.421   3.964   3.139   0.819   0.000   0.006  240.60  224.70   88.83  135.70    0.00    0.17 -99.000 -99.000 -99.000   0.621   0.105   0.033   0.019   0.011   0.007   0.005   0.009   0.005   0.003   0.314   1.554
 1975 160   221  25.30  22.70   9.00 -99.000   5.192   2.905   2.287   3.638   2.905   0.728   0.000   0.005  245.80  228.34   91.74  136.43    0.00    0.17 -99.000 -99.000 -99.000   0.535   0.101   0.032   0.019   0.011   0.007   0.005   0.009   0.005   0.003   0.290   1.470
 1975 161   222  25.20  22.00   8.60 -99.000   5.103   2.829   2.273   3.501   2.829   0.667   0.000   0.005  250.90  231.84   94.57  137.10    0.00    0.18 -99.000 -99.000 -99.000   0.479   0.097   0.032   0.018   0.011   0.007   0.005   0.009   0.005   0.003   0.283   1.474
 1975 162   223  27.40  24.40   9.30 -99.000   5.754   3.163   2.590   3.783   3.163   0.615   0.000   0.005  256.65  235.62   97.73  137.71    0.00    0.18 -99.000 -99.000 -99.000   0.433   0.093   0.031   0.018   0.010   0.007   0.005   0.009   0.005   0.003   0.316   1.496
 1975 163   224  25.70  25.70  10.10 -99.000   5.520   3.007   2.512   3.579   3.007   0.568   0.000   0.004  262.17  239.20  100.74  138.28    0.00    0.18 -99.000 -99.000 -99.000   0.392   0.089   0.030   0.018   0.010   0.007   0.005   0.009   0.005   0.003   0.301   1.502
 1975 164   225  24.60  24.00  12.10 -99.000   5.257   2.837   2.420   3.365   2.835   0.526   0.000   0.004  267.43  242.57  103.57  138.81    0.00    0.19 -99.000 -99.000 -99.000   0.356   0.085   0.029   0.017   0.010   0.007   0.005   0.009   0.005   0.003   0.284   1.406
 1975 165   226  14.90  22.40  12.50 -99.000   3.131   1.674   1.456   2.167   1.674   0.489   0.000   0.004  270.56  244.73  105.25  139.29    0.00    0.19 -99.000 -99.000 -99.000   0.323   0.082   0.028   0.017   0.010   0.007   0.005   0.009   0.005   0.003   0.167   1.374
 1975 166   227  15.10  17.40  12.40 -99.000   2.968   1.573   1.395   2.047   1.573   0.470   0.000   0.003  273.53  246.78  106.82  139.76    0.00    0.20 -99.000 -99.000 -99.000   0.306   0.081   0.027   0.017   0.010   0.007   0.005   0.009   0.005   0.003   0.157   1.333
 1975 167   228  15.10  16.00   4.80 -99.000   2.710   1.426   1.284   2.125   1.426   0.695   0.000   0.005  276.24  248.91  108.25  140.46    0.00    0.20 -99.000 -99.000 -99.000   0.533   0.080   0.027   0.017   0.010   0.007   0.005   0.009   0.005   0.003   0.143   1.277
 1975 168   229  18.40  18.50   9.00 -99.000   3.599   1.884   1.715   2.878   1.884   0.987   0.000   0.007  279.84  251.78  110.13  141.45    0.00    0.21 -99.000 -99.000 -99.000   0.827   0.079   0.026   0.017   0.010   0.007   0.005   0.009   0.005   0.003   0.188   1.409
 1975 169   230  21.60  20.40   6.30 -99.000   4.244   2.207   2.037   3.202   2.207   0.989   0.000   0.007  284.08  254.99  112.34  142.44    0.00    0.21 -99.000 -99.000 -99.000   0.831   0.078   0.026   0.016   0.009   0.007   0.005   0.009   0.005   0.003   0.221   1.346
 1975 170   231  17.50  19.40  11.60 -99.000   3.550   1.834   1.716   2.724   1.834   0.883   0.000   0.006  287.63  257.71  114.17  143.32    0.00    0.22 -99.000 -99.000 -99.000   0.728   0.077   0.025   0.016   0.009   0.007   0.005   0.009   0.005   0.003   0.183   1.231
 1975 171   232  22.70  23.30  10.30 -99.000   4.781   2.452   2.329   3.248   2.452   0.790   0.000   0.006  292.41  260.96  116.62  144.11    0.00    0.23 -99.000 -99.000 -99.000   0.636   0.076   0.024   0.016   0.009   0.007   0.005   0.009   0.005   0.003   0.245   1.170
 1975 172   233  21.90  24.00  11.10 -99.000   4.676   2.381   2.294   3.082   2.381   0.695   0.000   0.006  297.09  264.04  119.00  144.80    0.00    0.23 -99.000 -99.000 -99.000   0.543   0.075   0.024   0.016   0.009   0.006   0.004   0.009   0.005   0.003   0.238   0.985
 1975 173   234  23.90  20.70  11.20 -99.000   4.891   2.473   2.418   3.109   2.473   0.631   0.000   0.005  301.98  267.15  121.48  145.43    0.00    0.24 -99.000 -99.000 -99.000   0.482   0.074   0.023   0.016   0.009   0.006   0.004   0.009   0.005   0.003   0.247   0.903
 1975 174   235  10.70  18.60   8.90 -99.000   2.084   1.047   1.037   1.996   1.047   0.944   0.000   0.005  304.06  269.15  122.52  146.38    0.00    0.24 -99.000 -99.000 -99.000   0.796   0.073   0.023   0.016   0.009   0.006   0.004   0.009   0.005   0.003   0.105   0.811
 1975 175   236  25.80  22.90  11.70 -99.000   5.541   2.768   2.773   4.007   2.768   1.232   0.000   0.007  309.60  273.15  125.29  147.61    0.00    0.25 -99.000 -99.000 -99.000   1.085   0.073   0.023   0.016   0.009   0.006   0.004   0.009   0.005   0.003   0.277   0.946
 1975 176   237  28.20  20.60   8.10 -99.000   5.677   2.816   2.861   3.903   2.816   1.081   0.000   0.007  315.28  277.06  128.11  148.69    0.00    0.26 -99.000 -99.000 -99.000   0.935   0.072   0.022   0.015   0.009   0.006   0.004   0.009   0.005   0.003   0.282   0.864
 1975 177   238  23.80  25.40   6.00 -99.000   4.994   2.462   2.532   3.405   2.462   0.937   0.000   0.006  320.27  280.46  130.57  149.63    0.00    0.26 -99.000 -99.000 -99.000   0.792   0.071   0.022   0.015   0.009   0.006   0.004   0.009   0.005   0.003   0.246   0.803
 1975 178   239  17.10  16.90  11.40 -99.000   3.352   1.642   1.710   2.457   1.642   0.809   0.000   0.006  323.63  282.92  132.21  150.44    0.00    0.27 -99.000 -99.000 -99.000   0.666   0.070   0.022   0.015   0.009   0.006   0.004   0.009   0.005   0.003   0.164   0.760
 1975 179   240  12.40  14.00   9.00 -99.000   2.276   1.108   1.167   1.823   1.108   0.709   0.000   0.005  325.90  284.74  133.32  151.15    0.00    0.27 -99.000 -99.000 -99.000   0.567   0.069   0.022   0.015   0.009   0.006   0.004   0.009   0.005   0.003   0.111   0.635
 1975 180   241  18.20  18.60   5.80 -99.000   3.455   1.675   1.780   2.322   1.675   0.642   0.000   0.005  329.36  287.06  135.00  151.79    0.00    0.28 -99.000 -99.000 -99.000   0.501   0.069   0.022   0.015   0.009   0.006   0.004   0.009   0.005   0.003   0.168   0.552
 1975 181   242  20.80  20.60   7.80 -99.000   4.130   1.992   2.138   2.584   1.992   0.588   0.000   0.005  333.49  289.65  136.99  152.38    0.00    0.28 -99.000 -99.000 -99.000   0.448   0.068   0.021   0.015   0.009   0.006   0.004   0.008   0.005   0.003   0.199   0.512
 1975 182   243  25.30  22.00   7.70 -99.000   5.110   2.450   2.659   2.997   2.450   0.542   0.000   0.004  338.60  292.64  139.44  152.92    0.00    0.29 -99.000 -99.000 -99.000   0.404   0.067   0.021   0.015   0.008   0.006   0.004   0.008   0.005   0.003   0.245   0.482
 1975 183   244  26.70  22.80   8.40 -99.000   5.482   2.575   2.907   3.072   2.566   0.502   0.000   0.004  344.08  295.71  142.00  153.42    0.00    0.29 -99.000 -99.000 -99.000   0.365   0.066   0.021   0.015   0.008   0.006   0.004   0.008   0.005   0.003   0.257   0.455
 1975 184   245  19.90  22.60   7.10 -99.000   4.029   1.852   2.177   2.323   1.852   0.467   0.000   0.004  348.11  298.04  143.86  153.89    0.00    0.29 -99.000 -99.000 -99.000   0.332   0.066   0.021   0.015   0.008   0.006   0.004   0.008   0.005   0.003   0.185   0.432
 1975 185   246  11.70  20.40  13.20 -99.000   2.427   1.097   1.330   1.535   1.097   0.435   0.000   0.003  350.54  299.57  144.95  154.32    0.00    0.30 -99.000 -99.000 -99.000   0.301   0.065   0.021   0.014   0.008   0.006   0.004   0.008   0.005   0.003   0.110   0.419
 1975 186   247  14.00  17.70  10.50 -99.000   2.735   1.215   1.520   1.624   1.215   0.406   0.000   0.003  353.27  301.20  146.17  154.73    0.00    0.30 -99.000 -99.000 -99.000   0.273   0.064   0.020   0.014   0.008   0.006   0.004   0.008   0.005   0.003   0.121   0.411
 1975 187   248  25.30  22.30  10.40 -99.000   5.250   2.292   2.958   2.675   2.292   0.380   0.000   0.003  358.52  303.87  148.46  155.11    0.00    0.30 -99.000 -99.000 -99.000   0.248   0.064   0.020   0.014   0.008   0.006   0.004   0.008   0.005   0.003   0.229   0.403
 1975 188   249  19.90  23.90  10.20 -99.000   4.207   1.804   2.403   2.289   1.804   0.482   0.000   0.003  362.73  306.16  150.26  155.59    0.00    0.31 -99.000 -99.000 -99.000   0.351   0.063   0.020   0.014   0.008   0.005   0.004   0.008   0.005   0.003   0.180   0.392
 1975 189   250  17.50  24.60  11.60 -99.000   3.803   1.602   2.201   2.184   1.602   0.575   0.000   0.007  366.53  308.34  151.87  156.16    0.00    0.31 -99.000 -99.000 -99.000   0.445   0.063   0.020   0.014   0.008   0.005   0.004   0.008   0.005   0.003   0.160   0.391
 1975 190   251  14.70  22.20  12.70 -99.000   3.127   1.293   1.834   1.834   1.293   0.534   0.000   0.007  369.66  310.18  153.16  156.70    0.00    0.32 -99.000 -99.000 -99.000   0.405   0.062   0.020   0.014   0.008   0.005   0.004   0.008   0.005   0.003   0.129   0.380
 1975 191   252  15.50  21.70  13.60 -99.000   3.301   1.340   1.961   1.848   1.334   0.508   0.000   0.007  372.96  312.03  154.49  157.21    0.00    0.33 -99.000 -99.000 -99.000   0.380   0.061   0.020   0.014   0.008   0.005   0.004   0.008   0.005   0.003   0.133   0.373
 1975 192   253  21.00  22.70  13.60 -99.000   4.529   1.804   2.725   2.292   1.804   0.481   0.000   0.007  377.49  314.32  156.30  157.69    0.00    0.33 -99.000 -99.000 -99.000   0.354   0.061   0.020   0.014   0.008   0.005   0.004   0.008   0.005   0.003   0.180   0.356
 1975 193   254  10.10  19.50  11.10 -99.000   2.045   0.799   1.246   1.395   0.799   0.589   0.000   0.007  379.53  315.71  157.10  158.28    0.00    0.34 -99.000 -99.000 -99.000   0.463   0.060   0.020   0.014   0.008   0.005   0.004   0.007   0.005   0.003   0.080   0.317
 1975 194   255  17.80  24.20  13.90 -99.000   3.952   1.516   2.436   2.211   1.516   0.688   0.000   0.007  383.49  317.92  158.61  158.96    0.00    0.35 -99.000 -99.000 -99.000   0.563   0.060   0.019   0.014   0.008   0.005   0.004   0.007   0.005   0.003   0.152   0.382
 1975 195   256  19.60  23.60  16.90 -99.000   4.418   1.662   2.756   2.298   1.662   0.629   0.000   0.007  387.90  320.22  160.27  159.59    0.00    0.35 -99.000 -99.000 -99.000   0.504   0.060   0.019   0.014   0.008   0.005   0.004   0.007   0.005   0.003   0.166   0.298
 1975 196   257  17.20  20.90  14.30 -99.000   3.672   1.354   2.318   2.017   1.354   0.655   0.000   0.007  391.58  322.24  161.63  160.25    0.00    0.36 -99.000 -99.000 -99.000   0.532   0.059   0.019   0.014   0.008   0.005   0.004   0.007   0.005   0.003   0.135   0.274
 1975 197   258  17.70  22.90  12.70 -99.000   3.834   1.386   2.448   2.053   1.386   0.659   0.000   0.007  395.41  324.29  163.02  160.91    0.00    0.37 -99.000 -99.000 -99.000   0.536   0.059   0.019   0.014   0.008   0.005   0.004   0.007   0.005   0.003   0.139   0.293
 1975 198   259  13.20  22.30  14.60 -99.000   2.879   1.020   1.858   1.957   1.020   0.930   0.000   0.007  398.29  326.25  164.04  161.84    0.00    0.37 -99.000 -99.000 -99.000   0.807   0.058   0.019   0.014   0.008   0.005   0.004   0.007   0.005   0.003   0.102   0.245
 1975 199   260  16.80  22.60  11.00 -99.000   3.642   1.265   2.377   2.468   1.265   1.195   0.000   0.007  401.93  328.72  165.30  163.03    0.00    0.38 -99.000 -99.000 -99.000   1.073   0.058   0.019   0.014   0.008   0.005   0.004   0.007   0.005   0.003   0.127   0.412
 1975 200   261  10.20  20.90  11.50 -99.000   2.165   0.737   1.427   1.795   0.737   1.052   0.000   0.007  404.10  330.51  166.04  164.08    0.00    0.39 -99.000 -99.000 -99.000   0.930   0.058   0.019   0.014   0.008   0.005   0.004   0.007   0.005   0.003   0.074   0.405
 1975 201   262  10.60  21.00  14.70 -99.000   2.308   0.770   1.538   1.716   0.770   0.938   0.000   0.007  406.40  332.23  166.81  165.02    0.00    0.40 -99.000 -99.000 -99.000   0.817   0.057   0.019   0.014   0.008   0.005   0.004   0.007   0.005   0.003   0.077   0.401
 1975 202   263  18.10  21.90   9.60 -99.000   3.806   1.244   2.562   2.093   1.244   0.843   0.000   0.007  410.21  334.32  168.05  165.87    0.00    0.40 -99.000 -99.000 -99.000   0.722   0.057   0.019   0.013   0.008   0.005   0.004   0.007   0.005   0.003   0.124   0.397
 1975 203   264  11.80  21.40  12.50 -99.000   2.521   0.807   1.714   1.563   0.807   0.749   0.000   0.007  412.73  335.88  168.86  166.61    0.00    0.41 -99.000 -99.000 -99.000   0.629   0.057   0.019   0.013   0.008   0.005   0.004   0.007   0.005   0.003   0.081   0.392
 1975 204   265  13.90  20.90  13.60 -99.000   2.974   0.933   2.041   1.635   0.933   0.696   0.000   0.007  415.70  337.52  169.79  167.31    0.00    0.42 -99.000 -99.000 -99.000   0.576   0.056   0.019   0.013   0.008   0.005   0.004   0.007   0.005   0.003   0.093   0.262
 1975 205   266  14.90  17.90   8.90 -99.000   2.938   0.902   2.036   1.637   0.902   0.728   0.000   0.007  418.64  339.15  170.69  168.04    0.00    0.42 -99.000 -99.000 -99.000   0.609   0.056   0.019   0.013   0.008   0.005   0.004   0.007   0.005   0.003   0.090   0.239
 1975 206   267  15.80  19.30   8.50 -99.000   3.176   0.955   2.221   1.697   0.955   0.734   0.000   0.007  421.82  340.85  171.65  168.77    0.00    0.43 -99.000 -99.000 -99.000   0.616   0.055   0.018   0.013   0.008   0.005   0.004   0.007   0.005   0.003   0.096   0.378
 1975 207   268  19.80  24.90  11.00 -99.000   4.366   1.245   3.122   1.885   1.245   0.634   0.000   0.007  426.19  342.74  172.89  169.41    0.00    0.44 -99.000 -99.000 -99.000   0.516   0.055   0.018   0.013   0.008   0.005   0.004   0.007   0.005   0.003   0.124   0.220
 1975 208   269  15.60  25.50  13.00 -99.000   3.520   0.946   2.574   1.511   0.935   0.570   0.000   0.006  429.71  344.25  173.83  169.98    0.00    0.44 -99.000 -99.000 -99.000   0.453   0.055   0.018   0.013   0.008   0.005   0.004   0.007   0.005   0.003   0.094   0.192
 1975 209   270  20.70  27.60  13.50 -99.000   4.809   1.199   3.611   1.728   1.199   0.524   0.000   0.006  434.52  345.98  175.03  170.50    0.00    0.45 -99.000 -99.000 -99.000   0.407   0.054   0.018   0.013   0.008   0.005   0.004   0.007   0.005   0.003   0.120   0.180
 1975 210   271  21.10  29.10  12.60 -99.000   4.956   1.132   3.824   1.610   1.122   0.483   0.000   0.005  439.47  347.59  176.15  170.98    0.00    0.45 -99.000 -99.000 -99.000   0.367   0.054   0.018   0.013   0.008   0.005   0.004   0.007   0.005   0.003   0.112   0.172
 1975 211   272  20.60  29.40  13.00 -99.000   4.874   1.005   3.869   1.459   1.005   0.449   0.000   0.005  444.35  349.05  177.15  171.43    0.00    0.46 -99.000 -99.000 -99.000   0.334   0.054   0.018   0.013   0.008   0.005   0.004   0.007   0.005   0.003   0.100   0.166
 1975 212   273  11.70  25.20  15.10 -99.000   2.681   0.492   2.189   0.914   0.492   0.418   0.000   0.005  447.03  349.96  177.65  171.85    0.00    0.46 -99.000 -99.000 -99.000   0.303   0.053   0.018   0.013   0.008   0.005   0.004   0.007   0.004   0.003   0.049   0.162
 1975 213   274  20.80  25.80  14.60 -99.000   4.785   0.768   4.017   1.161   0.768   0.389   0.000   0.004  451.81  351.12  178.41  172.24    0.00    0.47 -99.000 -99.000 -99.000   0.275   0.053   0.018   0.013   0.007   0.005   0.004   0.007   0.004   0.003   0.077   0.160
 1975 214   275  23.70  28.20  10.40 -99.000   5.431   0.750   4.681   1.118   0.750   0.364   0.000   0.004  457.24  352.24  179.16  172.60    0.00    0.47 -99.000 -99.000 -99.000   0.250   0.053   0.018   0.013   0.007   0.005   0.004   0.007   0.004   0.003   0.075   0.157

*DSSAT Cropping System Model Ver. 4.8.2.010 -develop  JUL 08, 2024 16:11:18

*RUN   2        : 30 KG N/HA                CSCER048 RORO7401    2
 MODEL          : CSCER048 - Wheat
 EXPERIMENT     : RORO7401 WH N RESPONSE,ROTHAMSTED  8FE(N)  (DSSAT3)
 DATA PATH      : C:\DSSAT48\Wheat\
 TREATMENT  2   : 30 KG N/HA                CSCER048
  
!                                                                                                                                                                                        Soil evaporation (mm/d) by soil depth (cm):
!                                                                                                                                                                                        0-5    5-15   15-25   25-35   35-45   45-55   55-65   65-95  95-125 125-155
@YEAR DOY   DAS   SRAA  TMAXA  TMINA    REFA    EOAA    EOPA    EOSA    ETAA    EPAA    ESAA    EFAA    EMAA    EOAC    ETAC    EPAC    ESAC    EFAC    EMAC    KCAA    KBSA    KEAA    ES1D    ES2D    ES3D    ES4D    ES5D    ES6D    ES7D    ES8D    ES9D  ES10D   TRWUD   TWUPD
 1974 305     1   0.80   8.10   0.10 -99.000   0.137   0.000   0.137   0.137   0.000   0.137   0.000   0.000    0.14    0.14    0.00    0.14    0.00    0.00 -99.000 -99.000 -99.000   0.030   0.023   0.015   0.010   0.008   0.007   0.006   0.015   0.012   0.010   0.000   0.000
 1974 306     2   1.60   9.80   4.50 -99.000   0.295   0.000   0.295   0.295   0.000   0.295   0.000   0.000    0.43    0.43    0.00    0.43    0.00    0.00 -99.000 -99.000 -99.000   0.062   0.049   0.032   0.024   0.018   0.015   0.013   0.033   0.026   0.022   0.000   0.000
 1974 307     3   3.40   9.20   5.30 -99.000   0.625   0.000   0.625   0.625   0.000   0.625   0.000   0.000    1.06    1.06    0.00    1.06    0.00    0.00 -99.000 -99.000 -99.000   0.133   0.104   0.067   0.053   0.038   0.032   0.028   0.069   0.055   0.047   0.000   0.000
 1974 308     4   3.30   8.40   3.00 -99.000   0.585   0.000   0.585   0.585   0.000   0.585   0.000   0.000    1.64    1.64    0.00    1.64    0.00    0.00 -99.000 -99.000 -99.000   0.121   0.096   0.062   0.050   0.038   0.030   0.027   0.065   0.052   0.044   0.000   0.000
[...]
 1975 144   205   7.50   9.80   2.40 -99.000   1.162   1.001   0.161   1.158   1.001   0.155   0.000   0.002  186.27  182.69   73.49  109.15    0.00    0.06 -99.000 -99.000 -99.000   0.120   0.020   0.006   0.003   0.002   0.001   0.001   0.001   0.001   0.000   0.100   2.031
 1975 145   206  13.20  13.10   6.30 -99.000   2.250   1.943   0.307   2.242   1.943   0.297   0.000   0.002  188.52  184.94   75.43  109.45    0.00    0.06 -99.000 -99.000 -99.000   0.238   0.034   0.010   0.005   0.003   0.002   0.001   0.002   0.001   0.001   0.194   2.059
 1975 146   207  22.80  17.20   6.30 -99.000   4.127   3.585   0.541   4.112   3.585   0.525   0.000   0.002  192.64  189.05   79.01  109.98    0.00    0.06 -99.000 -99.000 -99.000   0.417   0.060   0.018   0.010   0.006   0.004   0.003   0.004   0.002   0.001   0.359   2.107
 1975 147   208  19.50  17.80   7.40 -99.000   3.591   3.144   0.447   3.579   3.144   0.433   0.000   0.002  196.23  192.63   82.16  110.41    0.00    0.06 -99.000 -99.000 -99.000   0.335   0.054   0.017   0.009   0.005   0.003   0.002   0.004   0.002   0.001   0.314   2.191
 1975 148   209  18.70  19.50   9.30 -99.000   3.582   3.163   0.419   3.570   3.163   0.405   0.000   0.002  199.82  196.20   85.32  110.81    0.00    0.06 -99.000 -99.000 -99.000   0.305   0.055   0.017   0.009   0.005   0.004   0.002   0.004   0.002   0.001   0.316   2.261
 1975 149   210   7.50  11.60   6.40 -99.000   1.244   1.109   0.135   1.240   1.109   0.130   0.000   0.002  201.06  197.44   86.43  110.94    0.00    0.07 -99.000 -99.000 -99.000   0.094   0.019   0.006   0.003   0.002   0.001   0.001   0.002   0.001   0.001   0.111   2.185
 1975 150   211  14.50  10.20   5.20 -99.000   2.321   2.081   0.240   2.314   2.081   0.231   0.000   0.002  203.38  199.75   88.51  111.18    0.00    0.07 -99.000 -99.000 -99.000   0.167   0.034   0.011   0.006   0.004   0.002   0.002   0.003   0.002   0.001   0.208   2.099
 1975 151   212  19.30  12.40  -0.10 -99.000   3.021   2.720   0.301   3.013   2.720   0.291   0.000   0.002  206.40  202.77   91.23  111.47    0.00    0.07 -99.000 -99.000 -99.000   0.206   0.045   0.015   0.008   0.005   0.003   0.002   0.004   0.002   0.001   0.272   1.916
 1975 152   213  16.20  13.10   2.00 -99.000   2.623   2.364   0.259   2.616   2.364   0.250   0.000   0.002  209.03  205.38   93.59  111.72    0.00    0.07 -99.000 -99.000 -99.000   0.176   0.038   0.013   0.007   0.004   0.003   0.002   0.003   0.002   0.001   0.236   1.901
 1975 153   214  18.00  12.10   3.30 -99.000   2.908   2.626   0.281   2.900   2.626   0.271   0.000   0.002  211.93  208.28   96.22  111.99    0.00    0.07 -99.000 -99.000 -99.000   0.214   0.029   0.010   0.006   0.003   0.002   0.002   0.003   0.001   0.001   0.263   1.942
 1975 154   215  20.60  12.60   2.30 -99.000   3.325   3.010   0.315   3.316   3.010   0.304   0.000   0.002  215.26  211.60   99.23  112.29    0.00    0.08 -99.000 -99.000 -99.000   0.254   0.025   0.009   0.005   0.003   0.002   0.001   0.002   0.001   0.001   0.301   2.596
 1975 155   216  14.00  14.60   2.20 -99.000   2.328   2.112   0.216   2.322   2.112   0.208   0.000   0.002  217.59  213.92  101.34  112.50    0.00    0.08 -99.000 -99.000 -99.000   0.174   0.017   0.006   0.004   0.002   0.001   0.001   0.002   0.001   0.001   0.211   2.668
 1975 156   217  15.10  19.40   5.70 -99.000   2.790   2.537   0.253   2.782   2.537   0.243   0.000   0.002  220.38  216.70  103.88  112.74    0.00    0.08 -99.000 -99.000 -99.000   0.205   0.019   0.007   0.004   0.002   0.002   0.001   0.002   0.001   0.001   0.254   2.699
 1975 157   218  26.70  24.00  11.50 -99.000   5.512   5.036   0.475   5.498   5.036   0.460   0.000   0.002  225.89  222.20  108.92  113.20    0.00    0.08 -99.000 -99.000 -99.000   0.383   0.036   0.014   0.008   0.005   0.003   0.002   0.004   0.002   0.001   0.504   2.431
 1975 158   219  25.90  25.40  10.70 -99.000   5.398   4.962   0.435   5.385   4.962   0.420   0.000   0.002  231.29  227.58  113.88  113.62    0.00    0.08 -99.000 -99.000 -99.000   0.341   0.037   0.014   0.009   0.005   0.004   0.002   0.004   0.002   0.002   0.496   2.290
 1975 159   220  27.00  23.80   7.60 -99.000   5.370   4.919   0.451   5.356   4.919   0.436   0.000   0.002  236.66  232.94  118.80  114.06    0.00    0.09 -99.000 -99.000 -99.000   0.336   0.046   0.017   0.011   0.007   0.005   0.003   0.006   0.003   0.002   0.492   1.897
 1975 160   221  25.30  22.70   9.00 -99.000   5.020   4.584   0.436   5.007   4.584   0.421   0.000   0.002  241.68  237.95  123.38  114.48    0.00    0.09 -99.000 -99.000 -99.000   0.311   0.051   0.018   0.012   0.008   0.005   0.004   0.007   0.004   0.002   0.458   1.617
 1975 161   222  25.20  22.00   8.60 -99.000   4.938   4.495   0.443   4.925   4.495   0.428   0.000   0.002  246.62  242.87  127.87  114.91    0.00    0.09 -99.000 -99.000 -99.000   0.311   0.055   0.018   0.013   0.008   0.006   0.004   0.007   0.004   0.002   0.449   1.194
 1975 162   223  27.40  24.40   9.30 -99.000   5.573   5.057   0.515   5.507   5.007   0.498   0.000   0.002  252.19  248.38  132.88  115.41    0.00    0.09 -99.000 -99.000 -99.000   0.356   0.067   0.021   0.015   0.010   0.007   0.005   0.009   0.005   0.003   0.501   0.913
 1975 163   224  25.70  25.70  10.10 -99.000   5.349   4.838   0.511   5.324   4.838   0.484   0.000   0.002  257.54  253.70  137.72  115.89    0.00    0.09 -99.000 -99.000 -99.000   0.340   0.067   0.021   0.016   0.010   0.007   0.005   0.009   0.005   0.003   0.484   0.786
 1975 164   225  24.60  24.00  12.10 -99.000   5.097   4.594   0.503   5.045   4.594   0.449   0.000   0.002  262.63  258.75  142.31  116.34    0.00    0.10 -99.000 -99.000 -99.000   0.309   0.065   0.021   0.015   0.010   0.007   0.005   0.009   0.005   0.003   0.459   0.731
 1975 165   226  14.90  22.40  12.50 -99.000   3.037   2.727   0.309   3.027   2.727   0.298   0.000   0.002  265.67  261.78  145.04  116.64    0.00    0.10 -99.000 -99.000 -99.000   0.201   0.046   0.014   0.011   0.007   0.005   0.003   0.006   0.004   0.002   0.273   0.616
 1975 166   227  15.10  17.40  12.40 -99.000   2.881   2.578   0.302   2.872   2.578   0.292   0.000   0.002  268.55  264.65  147.62  116.93    0.00    0.10 -99.000 -99.000 -99.000   0.196   0.045   0.014   0.010   0.006   0.005   0.003   0.006   0.004   0.002   0.258   0.585
 1975 167   228  15.10  16.00   4.80 -99.000   2.630   2.347   0.283   2.621   2.347   0.272   0.000   0.002  271.18  267.27  149.97  117.20    0.00    0.10 -99.000 -99.000 -99.000   0.216   0.026   0.008   0.006   0.004   0.003   0.002   0.004   0.002   0.001   0.235   0.565
 1975 168   229  18.40  18.50   9.00 -99.000   3.465   3.086   0.379   3.453   3.086   0.365   0.000   0.002  274.65  270.72  153.05  117.57    0.00    0.10 -99.000 -99.000 -99.000   0.316   0.023   0.007   0.005   0.003   0.002   0.002   0.003   0.002   0.001   0.309   1.323
 1975 169   230  21.60  20.40   6.30 -99.000   4.074   3.618   0.456   4.060   3.618   0.440   0.000   0.002  278.72  274.78  156.67  118.01    0.00    0.11 -99.000 -99.000 -99.000   0.373   0.031   0.010   0.007   0.004   0.003   0.002   0.004   0.003   0.002   0.362   1.296
 1975 170   231  17.50  19.40  11.60 -99.000   3.412   3.022   0.390   3.400   3.022   0.376   0.000   0.002  282.13  278.18  159.69  118.38    0.00    0.11 -99.000 -99.000 -99.000   0.297   0.036   0.012   0.009   0.005   0.004   0.003   0.005   0.003   0.002   0.302   0.560
 1975 171   232  22.70  23.30  10.30 -99.000   4.603   4.064   0.538   4.586   4.064   0.520   0.000   0.002  286.74  282.77  163.76  118.90    0.00    0.11 -99.000 -99.000 -99.000   0.397   0.057   0.018   0.014   0.008   0.006   0.004   0.008   0.005   0.003   0.406   0.424
 1975 172   233  21.90  24.00  11.10 -99.000   4.510   3.970   0.540   3.989   3.505   0.481   0.000   0.002  291.25  286.76  167.26  119.38    0.00    0.11 -99.000 -99.000 -99.000   0.355   0.058   0.018   0.014   0.009   0.006   0.004   0.009   0.005   0.003   0.351   0.358
 1975 173   234  23.90  20.70  11.20 -99.000   4.723   4.144   0.578   3.647   3.199   0.446   0.000   0.002  295.97  290.40  170.46  119.83    0.00    0.12 -99.000 -99.000 -99.000   0.323   0.057   0.018   0.014   0.008   0.006   0.004   0.008   0.005   0.003   0.320   0.320
 1975 174   235  10.70  18.60   8.90 -99.000   2.014   1.762   0.252   2.006   1.762   0.242   0.000   0.002  297.98  292.41  172.22  120.07    0.00    0.12 -99.000 -99.000 -99.000   0.205   0.017   0.006   0.004   0.003   0.002   0.001   0.003   0.002   0.001   0.176   0.300
 1975 175   236  25.80  22.90  11.70 -99.000   5.292   4.618   0.673   5.271   4.618   0.651   0.000   0.003  303.27  297.68  176.84  120.72    0.00    0.12 -99.000 -99.000 -99.000   0.582   0.032   0.010   0.008   0.005   0.003   0.002   0.005   0.003   0.002   0.462   1.140
 1975 176   237  28.20  20.60   8.10 -99.000   5.429   4.723   0.706   4.491   3.806   0.683   0.000   0.002  308.70  302.17  180.65  121.41    0.00    0.12 -99.000 -99.000 -99.000   0.576   0.049   0.016   0.012   0.007   0.005   0.003   0.007   0.004   0.003   0.381   1.137
 1975 177   238  23.80  25.40   6.00 -99.000   4.784   4.150   0.634   3.205   2.729   0.474   0.000   0.002  313.49  305.38  183.37  121.88    0.00    0.12 -99.000 -99.000 -99.000   0.355   0.055   0.018   0.013   0.008   0.006   0.004   0.008   0.005   0.003   0.273   0.281
 1975 178   239  17.10  16.90  11.40 -99.000   3.221   2.786   0.435   3.057   2.635   0.420   0.000   0.002  316.71  308.44  186.01  122.30    0.00    0.13 -99.000 -99.000 -99.000   0.307   0.052   0.017   0.013   0.008   0.005   0.004   0.008   0.005   0.003   0.263   0.263
 1975 179   240  12.40  14.00   9.00 -99.000   2.191   1.890   0.301   2.182   1.890   0.290   0.000   0.002  318.90  310.62  187.90  122.59    0.00    0.13 -99.000 -99.000 -99.000   0.207   0.038   0.012   0.009   0.006   0.004   0.003   0.005   0.003   0.002   0.189   0.256
 1975 180   241  18.20  18.60   5.80 -99.000   3.333   2.868   0.464   2.904   2.511   0.391   0.000   0.002  322.23  313.52  190.41  122.98    0.00    0.13 -99.000 -99.000 -99.000   0.275   0.054   0.017   0.013   0.008   0.005   0.004   0.008   0.005   0.003   0.251   0.251
 1975 181   242  20.80  20.60   7.80 -99.000   3.988   3.424   0.564   2.784   2.417   0.365   0.000   0.002  326.22  316.31  192.83  123.35    0.00    0.13 -99.000 -99.000 -99.000   0.249   0.053   0.017   0.013   0.008   0.005   0.004   0.008   0.005   0.003   0.242   0.242
 1975 182   243  25.30  22.00   7.70 -99.000   4.938   4.228   0.710   2.377   2.034   0.341   0.000   0.002  331.16  318.68  194.86  123.69    0.00    0.13 -99.000 -99.000 -99.000   0.226   0.053   0.017   0.013   0.008   0.005   0.004   0.007   0.005   0.003   0.203   0.203
 1975 183   244  26.70  22.80   8.40 -99.000   5.302   4.495   0.807   2.119   1.798   0.320   0.000   0.002  336.46  320.80  196.66  124.01    0.00    0.14 -99.000 -99.000 -99.000   0.205   0.053   0.017   0.013   0.008   0.005   0.004   0.007   0.005   0.003   0.180   0.180
 1975 184   245  19.90  22.60   7.10 -99.000   3.899   3.271   0.628   1.936   1.634   0.300   0.000   0.002  340.36  322.74  198.29  124.31    0.00    0.14 -99.000 -99.000 -99.000   0.187   0.052   0.016   0.013   0.008   0.005   0.004   0.007   0.005   0.003   0.163   0.163
 1975 185   246  11.70  20.40  13.20 -99.000   2.350   1.955   0.395   1.733   1.449   0.282   0.000   0.002  342.71  324.47  199.74  124.59    0.00    0.14 -99.000 -99.000 -99.000   0.169   0.052   0.016   0.013   0.008   0.005   0.004   0.007   0.005   0.003   0.145   0.151
 1975 186   247  14.00  17.70  10.50 -99.000   2.650   2.185   0.465   1.624   1.356   0.266   0.000   0.002  345.36  326.09  201.10  124.85    0.00    0.14 -99.000 -99.000 -99.000   0.154   0.052   0.016   0.012   0.008   0.005   0.004   0.007   0.005   0.003   0.136   0.136
 1975 187   248  25.30  22.30  10.40 -99.000   5.089   4.158   0.931   1.534   1.282   0.251   0.000   0.001  350.45  327.63  202.38  125.11    0.00    0.14 -99.000 -99.000 -99.000   0.140   0.052   0.016   0.012   0.008   0.005   0.004   0.007   0.005   0.003   0.128   0.128
 1975 188   249  19.90  23.90  10.20 -99.000   4.083   3.278   0.805   1.586   1.219   0.365   0.000   0.001  354.53  329.21  203.60  125.47    0.00    0.14 -99.000 -99.000 -99.000   0.254   0.051   0.016   0.012   0.008   0.005   0.004   0.007   0.005   0.003   0.122   0.122
 1975 189   250  17.50  24.60  11.60 -99.000   3.679   2.899   0.780   1.638   1.167   0.469   0.000   0.003  358.21  330.85  204.77  125.94    0.00    0.15 -99.000 -99.000 -99.000   0.359   0.051   0.016   0.012   0.008   0.005   0.004   0.007   0.005   0.003   0.117   0.124
 1975 190   251  14.70  22.20  12.70 -99.000   3.030   2.341   0.689   1.564   1.122   0.440   0.000   0.002  361.24  332.42  205.89  126.38    0.00    0.15 -99.000 -99.000 -99.000   0.330   0.051   0.016   0.012   0.008   0.005   0.004   0.007   0.005   0.003   0.112   0.112
 1975 191   252  15.50  21.70  13.60 -99.000   3.203   2.424   0.778   1.507   1.082   0.423   0.000   0.003  364.44  333.92  206.97  126.80    0.00    0.15 -99.000 -99.000 -99.000   0.313   0.050   0.016   0.012   0.008   0.005   0.004   0.007   0.005   0.003   0.108   0.108
 1975 192   253  21.00  22.70  13.60 -99.000   4.400   3.259   1.140   1.452   1.048   0.402   0.000   0.003  368.84  335.38  208.02  127.21    0.00    0.15 -99.000 -99.000 -99.000   0.293   0.050   0.016   0.012   0.007   0.005   0.004   0.007   0.005   0.003   0.105   0.105
 1975 193   254  10.10  19.50  11.10 -99.000   1.990   1.441   0.549   1.537   1.017   0.517   0.000   0.002  370.84  336.91  209.03  127.72    0.00    0.16 -99.000 -99.000 -99.000   0.409   0.050   0.016   0.012   0.007   0.005   0.004   0.007   0.005   0.003   0.102   0.102
 1975 194   255  17.80  24.20  13.90 -99.000   3.830   2.740   1.091   2.829   2.204   0.622   0.000   0.003  374.67  339.74  211.24  128.34    0.00    0.16 -99.000 -99.000 -99.000   0.514   0.049   0.016   0.012   0.007   0.005   0.004   0.007   0.005   0.003   0.220   0.273
 1975 195   256  19.60  23.60  16.90 -99.000   4.284   3.023   1.261   1.452   0.965   0.485   0.000   0.002  378.95  341.19  212.20  128.83    0.00    0.16 -99.000 -99.000 -99.000   0.377   0.049   0.016   0.012   0.007   0.005   0.004   0.007   0.005   0.003   0.096   0.096
 1975 196   257  17.20  20.90  14.30 -99.000   3.566   2.454   1.112   1.565   1.030   0.532   0.000   0.003  382.52  342.76  213.23  129.36    0.00    0.16 -99.000 -99.000 -99.000   0.425   0.049   0.016   0.012   0.007   0.005   0.003   0.007   0.004   0.003   0.103   0.103
 1975 197   258  17.70  22.90  12.70 -99.000   3.724   2.499   1.225   1.844   1.297   0.544   0.000   0.003  386.24  344.60  214.53  129.91    0.00    0.17 -99.000 -99.000 -99.000   0.438   0.049   0.016   0.012   0.007   0.005   0.003   0.007   0.004   0.003   0.130   0.130
 1975 198   259  13.20  22.30  14.60 -99.000   2.802   1.831   0.971   1.803   0.986   0.814   0.000   0.002  389.04  346.40  215.52  130.72    0.00    0.17 -99.000 -99.000 -99.000   0.708   0.048   0.016   0.012   0.007   0.005   0.003   0.007   0.004   0.003   0.099   0.099
 1975 199   260  16.80  22.60  11.00 -99.000   3.520   2.238   1.282   3.331   2.238   1.090   0.000   0.003  392.56  349.74  217.75  131.81    0.00    0.17 -99.000 -99.000 -99.000   0.985   0.048   0.016   0.012   0.007   0.005   0.003   0.007   0.004   0.003   0.224   0.935
 1975 200   261  10.20  20.90  11.50 -99.000   2.092   1.309   0.782   2.068   1.309   0.757   0.000   0.003  394.65  351.80  219.06  132.57    0.00    0.17 -99.000 -99.000 -99.000   0.660   0.044   0.015   0.011   0.007   0.005   0.003   0.006   0.004   0.003   0.131   0.934
 1975 201   262  10.60  21.00  14.70 -99.000   2.232   1.375   0.857   2.034   1.375   0.656   0.000   0.003  396.89  353.84  220.44  133.22    0.00    0.18 -99.000 -99.000 -99.000   0.551   0.047   0.016   0.012   0.007   0.005   0.003   0.007   0.004   0.003   0.138   0.451
 1975 202   263  18.10  21.90   9.60 -99.000   3.684   2.232   1.452   1.558   1.040   0.516   0.000   0.002  400.57  355.40  221.48  133.74    0.00    0.18 -99.000 -99.000 -99.000   0.412   0.047   0.016   0.012   0.007   0.005   0.003   0.007   0.004   0.003   0.104   0.104
 1975 203   264  11.80  21.40  12.50 -99.000   2.450   1.441   1.008   1.448   0.955   0.490   0.000   0.003  403.02  356.84  222.43  134.23    0.00    0.18 -99.000 -99.000 -99.000   0.386   0.047   0.016   0.012   0.007   0.005   0.003   0.007   0.004   0.003   0.096   0.096
 1975 204   265  13.90  20.90  13.60 -99.000   2.896   1.675   1.222   1.401   0.912   0.486   0.000   0.003  405.92  358.24  223.35  134.71    0.00    0.18 -99.000 -99.000 -99.000   0.382   0.047   0.016   0.012   0.007   0.005   0.003   0.007   0.004   0.003   0.091   0.091
 1975 205   266  14.90  17.90   8.90 -99.000   2.868   1.607   1.260   1.473   0.921   0.549   0.000   0.003  408.78  359.72  224.27  135.26    0.00    0.19 -99.000 -99.000 -99.000   0.446   0.046   0.016   0.012   0.007   0.005   0.003   0.007   0.004   0.003   0.092   0.092
 1975 206   267  15.80  19.30   8.50 -99.000   3.102   1.686   1.416   2.181   1.601   0.578   0.000   0.003  411.89  361.90  225.87  135.84    0.00    0.19 -99.000 -99.000 -99.000   0.475   0.046   0.016   0.012   0.007   0.005   0.003   0.007   0.004   0.003   0.160   0.160
 1975 207   268  19.80  24.90  11.00 -99.000   4.271   2.223   2.048   1.270   0.806   0.461   0.000   0.002  416.16  363.17  226.67  136.30    0.00    0.19 -99.000 -99.000 -99.000   0.359   0.046   0.016   0.012   0.007   0.005   0.003   0.006   0.004   0.003   0.081   0.088
 1975 208   269  15.60  25.50  13.00 -99.000   3.454   1.688   1.766   1.226   0.796   0.428   0.000   0.002  419.61  364.39  227.47  136.73    0.00    0.19 -99.000 -99.000 -99.000   0.326   0.045   0.016   0.012   0.007   0.005   0.003   0.006   0.004   0.003   0.080   0.080
 1975 209   270  20.70  27.60  13.50 -99.000   4.733   2.132   2.600   1.185   0.786   0.397   0.000   0.002  424.34  365.58  228.26  137.13    0.00    0.20 -99.000 -99.000 -99.000   0.296   0.045   0.016   0.012   0.007   0.005   0.003   0.006   0.004   0.003   0.079   0.079
 1975 210   271  21.10  29.10  12.60 -99.000   4.891   2.003   2.888   1.148   0.776   0.370   0.000   0.002  429.24  366.73  229.03  137.50    0.00    0.20 -99.000 -99.000 -99.000   0.269   0.045   0.016   0.011   0.007   0.005   0.003   0.006   0.004   0.003   0.078   0.078
 1975 211   272  20.60  29.40  13.00 -99.000   4.824   1.762   3.061   1.114   0.767   0.345   0.000   0.002  434.06  367.84  229.80  137.84    0.00    0.20 -99.000 -99.000 -99.000   0.244   0.045   0.016   0.011   0.007   0.005   0.003   0.006   0.004   0.003   0.077   0.077
 1975 212   273  11.70  25.20  15.10 -99.000   2.661   0.850   1.811   1.082   0.759   0.322   0.000   0.002  436.72  368.92  230.56  138.16    0.00    0.20 -99.000 -99.000 -99.000   0.221   0.044   0.016   0.011   0.007   0.005   0.003   0.006   0.004   0.003   0.076   0.076
 1975 213   274  20.80  25.80  14.60 -99.000   4.761   1.319   3.442   1.053   0.751   0.301   0.000   0.002  441.48  369.98  231.31  138.47    0.00    0.20 -99.000 -99.000 -99.000   0.201   0.044   0.016   0.011   0.007   0.005   0.003   0.006   0.004   0.003   0.075   0.075
 1975 214   275  23.70  28.20  10.40 -99.000   5.419   1.247   4.173   1.027   0.743   0.282   0.000   0.002  446.90  371.00  232.05  138.75    0.00    0.21 -99.000 -99.000 -99.000   0.182   0.044   0.016   0.011   0.007   0.005   0.003   0.006   0.004   0.003   0.074   0.074
