*GHG emissions output file

*DSSAT Cropping System Model Ver. 4.8.2.010 -develop  JUL 08, 2024 16:11:18

*RUN   1        : 0 KG N/HA                 CSCER048 RORO7401    1
 MODEL          : CSCER048 - Wheat
 EXPERIMENT     : RORO7401 WH N RESPONSE,ROTHAMSTED  8FE(N)  (DSSAT3)
 DATA PATH      : C:\DSSAT48\Wheat\
 TREATMENT  1   : 0 KG N/HA                 CSCER048
  
!               |------ Daily (g/ha) -----|--- Cumulative (kg/ha) ---|---- Cum CO2-equiv kg[CO2eq]/ha ---|
!                    CO2      N2O      CH4      CO2      N2O      CH4      CO2      N2O      CH4    Total
!                g[C]/ha  g[N]/ha  g[C]/ha kg[C]/ha kg[N]/ha kg[C]/ha    CO2eq    CO2eq    CO2eq    CO2eq
@YEAR DOY   DAS   CO2GED   N2OGED   CH4GED    CO2EC    N2OEC    CH4EC    CCEQC    NCEQC    MCEQC    TCEQC
 1974 305     1      554     0.00     0.00        1     0.00     0.00        2        0        0        2
 1974 306     2      552     0.02     0.00        1     0.00     0.00        4        0        0        4
 1974 307     3      902     0.03     0.00        2     0.00     0.00        7        0        0        7
 1974 308     4     1743     0.05     0.00        4     0.00     0.00       14        0        0       14
 1974 309     5     2674     0.08     0.00        6     0.00     0.00       24        0        0       24
 1974 310     6     4077     0.13     0.00       11     0.00     0.00       39        0        0       39
 1974 311     7     4795     0.16     0.00       15     0.00     0.00       56        0        0       56
 1974 312     8     4855     0.28     0.00       20     0.00     0.00       74        0        0       74
 1974 313     9     5767     0.40     0.00       26     0.00     0.00       95        1        0       96
 1974 314    10     7473     0.51     0.00       33     0.00     0.00      123        1        0      123
 1974 315    11     7450     0.65     0.00       41     0.00     0.00      150        1        0      151
 1974 316    12     7917     0.75     0.00       49     0.00     0.00      179        1        0      180
 1974 317    13     7172     1.01     0.00       56     0.00     0.00      205        2        0      207
 1974 318    14     4959     0.91     0.00       61     0.00     0.00      223        2        0      226
 1974 319    15     4578     0.99     0.00       65     0.01     0.00      240        3        0      243
 1974 320    16     4815     1.06     0.00       70     0.01     0.00      258        3        0      261
 1974 321    17     4677     1.13     0.00       75     0.01     0.00      275        4        0      279
 1974 322    18     4521     1.18     0.00       79     0.01     0.00      292        4        0      296
 1974 323    19     4261     1.21     0.00       84     0.01     0.00      307        5        0      312
 1974 324    20     2618     1.29     0.00       86     0.01     0.00      317        6        0      322
 1974 325    21     1151     1.28     0.00       88     0.01     0.00      321        6        0      327
 1974 326    22     1073     1.32     0.00       89     0.01     0.00      325        7        0      332
 1974 327    23     1931     1.59     0.00       91     0.02     0.00      332        7        0      340
 1974 328    24     3102     1.80     0.00       94     0.02     0.00      344        8        0      352
 1974 329    25     3385     1.66     0.00       97     0.02     0.00      356        9        0      365
 1974 330    26     4387     2.13     0.00      101     0.02     0.00      372       10        0      382
 1974 331    27     3683     2.24     0.00      105     0.02     0.00      386       11        0      397
 1974 332    28     2167     2.16     0.00      107     0.03     0.00      394       12        0      406
 1974 333    29     1159     2.00     0.00      108     0.03     0.00      398       13        0      411
 1974 334    30     1651     2.05     0.00      110     0.03     0.00      404       14        0      418
 1974 335    31     2360     2.51     0.00      112     0.03     0.00      413       15        0      428
 1974 336    32     3620     2.68     0.00      116     0.04     0.00      426       16        0      442
 1974 337    33     6265     2.90     0.00      122     0.04     0.00      449       18        0      467
 1974 338    34     8578     3.02     0.00      131     0.04     0.00      480       19        0      500
 1974 339    35     9801     3.08     0.00      141     0.04     0.00      516       21        0      537
 1974 340    36     9244     3.11     0.00      150     0.05     0.00      550       22        0      572
 1974 341    37     9002     3.13     0.00      159     0.05     0.00      583       24        0      607
 1974 342    38     8342     3.14     0.00      167     0.05     0.00      614       25        0      639
 1974 343    39     7811     3.07     0.00      175     0.06     0.00      643       27        0      669
 1974 344    40     6890     3.13     0.00      182     0.06     0.00      668       28        0      696
 1974 345    41     5029     2.22     0.00      187     0.06     0.00      686       29        0      715
 1974 346    42     3098     2.19     0.00      190     0.06     0.00      698       30        0      728
 1974 347    43     1428     2.12     0.00      192     0.07     0.00      703       31        0      734
 1974 348    44      398     2.59     0.00      192     0.07     0.00      704       32        0      737
 1974 349    45      202     2.72     0.00      192     0.07     0.00      705       34        0      739
 1974 350    46      277     2.89     0.00      192     0.07     0.00      706       35        0      741
 1974 351    47      531     2.31     0.00      193     0.08     0.00      708       36        0      744
 1974 352    48      593     2.81     0.00      194     0.08     0.00      710       37        0      748
 1974 353    49      913     2.98     0.00      194     0.08     0.00      714       39        0      752
 1974 354    50     1627     3.09     0.00      196     0.09     0.00      720       40        0      760
 1974 355    51     3302     3.10     0.00      199     0.09     0.00      732       42        0      773
 1974 356    52     4345     2.42     0.00      204     0.09     0.00      748       43        0      790
 1974 357    53     5934     2.34     0.00      210     0.09     0.00      769       44        0      813
 1974 358    54     6746     2.66     0.00      216     0.10     0.00      794       45        0      839
 1974 359    55     6961     2.68     0.00      223     0.10     0.00      820       46        0      866
 1974 360    56     5752     2.31     0.00      229     0.10     0.00      841       47        0      888
 1974 361    57     4641     2.24     0.00      234     0.10     0.00      858       48        0      906
 1974 362    58     4689     2.51     0.00      238     0.11     0.00      875       50        0      925
 1974 363    59     4792     2.64     0.00      243     0.11     0.00      893       51        0      943
 1974 364    60     5551     2.72     0.00      249     0.11     0.00      913       52        0      965
 1974 365    61     5181     2.82     0.00      254     0.11     0.00      932       53        0      985
 1975 001    62     4474     2.80     0.00      258     0.12     0.00      948       55        0     1003
 1975 002    63     3525     2.30     0.00      262     0.12     0.00      961       56        0     1017
 1975 003    64     2829     2.60     0.00      265     0.12     0.00      972       57        0     1029
 1975 004    65     1937     2.76     0.00      267     0.12     0.00      979       58        0     1037
 1975 005    66     1846     2.79     0.00      269     0.13     0.00      986       60        0     1045
 1975 006    67     1821     2.80     0.00      270     0.13     0.00      992       61        0     1053
 1975 007    68     2400     2.06     0.00      273     0.13     0.00     1001       62        0     1063
 1975 008    69     2171     2.41     0.00      275     0.13     0.00     1009       63        0     1072
 1975 009    70     2112     2.69     0.00      277     0.14     0.00     1017       64        0     1081
 1975 010    71     2962     2.79     0.00      280     0.14     0.00     1028       66        0     1093
 1975 011    72     3815     2.78     0.00      284     0.14     0.00     1042       67        0     1109
 1975 012    73     3861     2.77     0.00      288     0.15     0.00     1056       68        0     1124
 1975 013    74     3972     2.02     0.00      292     0.15     0.00     1070       69        0     1140
 1975 014    75     3404     2.45     0.00      295     0.15     0.00     1083       70        0     1153
 1975 015    76     3242     2.13     0.00      298     0.15     0.00     1095       71        0     1166
 1975 016    77     3039     2.10     0.00      301     0.15     0.00     1106       72        0     1178
 1975 017    78     2505     2.05     0.00      304     0.16     0.00     1115       73        0     1188
 1975 018    79     1781     2.01     0.00      306     0.16     0.00     1122       74        0     1196
 1975 019    80     1094     1.90     0.00      307     0.16     0.00     1126       75        0     1201
 1975 020    81      367     1.88     0.00      307     0.16     0.00     1127       76        0     1203
 1975 021    82      144     1.77     0.00      307     0.16     0.00     1128       77        0     1204
 1975 022    83      133     1.75     0.00      307     0.17     0.00     1128       78        0     1206
 1975 023    84      179     1.65     0.00      308     0.17     0.00     1129       78        0     1207
 1975 024    85      275     1.75     0.00      308     0.17     0.00     1130       79        0     1209
 1975 025    86      531     1.63     0.00      308     0.17     0.00     1132       80        0     1212
 1975 026    87     1334     1.66     0.00      310     0.17     0.00     1137       81        0     1217
 1975 027    88     1185     1.58     0.00      311     0.17     0.00     1141       81        0     1222
 1975 028    89      742     1.49     0.00      312     0.18     0.00     1144       82        0     1226
 1975 029    90      576     1.45     0.00      312     0.18     0.00     1146       83        0     1229
 1975 030    91      433     1.44     0.00      313     0.18     0.00     1147       84        0     1231
 1975 031    92      430     1.48     0.00      313     0.18     0.00     1149       84        0     1233
 1975 032    93     1210     1.46     0.00      314     0.18     0.00     1153       85        0     1238
 1975 033    94     1549     1.72     0.00      316     0.18     0.00     1159       86        0     1245
 1975 034    95     1694     1.83     0.00      318     0.18     0.00     1165       87        0     1252
 1975 035    96     1773     1.96     0.00      319     0.19     0.00     1172       87        0     1259
 1975 036    97     1342     2.01     0.00      321     0.19     0.00     1177       88        0     1265
 1975 037    98      295     2.05     0.00      321     0.19     0.00     1178       89        0     1267
 1975 038    99      110     2.05     0.00      321     0.19     0.00     1178       90        0     1269
 1975 039   100      118     2.05     0.00      321     0.20     0.00     1179       91        0     1270
 1975 040   101       81     2.06     0.00      321     0.20     0.00     1179       92        0     1271
 1975 041   102       64     2.05     0.00      321     0.20     0.00     1179       93        0     1272
 1975 042   103       49     1.73     0.00      321     0.20     0.00     1179       94        0     1273
 1975 043   104       77     1.51     0.00      321     0.20     0.00     1180       95        0     1274
 1975 044   105      168     1.53     0.00      322     0.20     0.00     1180       95        0     1276
 1975 045   106      344     1.61     0.00      322     0.21     0.00     1182       96        0     1278
 1975 046   107      361     1.50     0.00      322     0.21     0.00     1183       97        0     1280
 1975 047   108      336     1.68     0.00      323     0.21     0.00     1184       98        0     1282
 1975 048   109      256     1.67     0.00      323     0.21     0.00     1185       99        0     1284
 1975 049   110      141     1.43     0.00      323     0.21     0.00     1186       99        0     1285
 1975 050   111       84     1.39     0.00      323     0.21     0.00     1186      100        0     1286
 1975 051   112      125     1.63     0.00      323     0.21     0.00     1186      101        0     1287
 1975 052   113      185     1.81     0.00      323     0.22     0.00     1187      101        0     1288
 1975 053   114      187     1.84     0.00      324     0.22     0.00     1188      102        0     1290
 1975 054   115      124     1.85     0.00      324     0.22     0.00     1188      103        0     1291
 1975 055   116      117     1.86     0.00      324     0.22     0.00     1189      104        0     1293
 1975 056   117      122     1.88     0.00      324     0.22     0.00     1189      105        0     1294
 1975 057   118       69     1.90     0.00      324     0.23     0.00     1189      106        0     1295
 1975 058   119      114     1.92     0.00      324     0.23     0.00     1190      107        0     1296
 1975 059   120       99     1.94     0.00      324     0.23     0.00     1190      108        0     1298
 1975 060   121       80     1.96     0.00      324     0.23     0.00     1190      109        0     1299
 1975 061   122      148     1.99     0.00      324     0.23     0.00     1191      109        0     1300
 1975 062   123      709     1.57     0.00      325     0.24     0.00     1193      110        0     1304
 1975 063   124     1652     1.86     0.00      327     0.24     0.00     1200      111        0     1311
 1975 064   125     2099     1.58     0.00      329     0.24     0.00     1207      112        0     1319
 1975 065   126     2195     1.81     0.00      331     0.24     0.00     1215      113        0     1328
 1975 066   127     2123     1.51     0.00      333     0.24     0.00     1223      113        0     1336
 1975 067   128     1975     1.49     0.00      335     0.24     0.00     1230      114        0     1344
 1975 068   129     1359     1.45     0.00      337     0.25     0.00     1235      115        0     1350
 1975 069   130     1110     1.46     0.00      338     0.25     0.00     1239      115        0     1355
 1975 070   131      670     1.70     0.00      338     0.25     0.00     1242      116        0     1358
 1975 071   132      214     1.42     0.00      339     0.25     0.00     1243      117        0     1360
 1975 072   133      114     1.37     0.00      339     0.25     0.00     1243      118        0     1361
 1975 073   134       94     1.35     0.00      339     0.25     0.00     1243      118        0     1362
 1975 074   135       53     1.41     0.00      339     0.25     0.00     1244      119        0     1362
 1975 075   136       43     1.41     0.00      339     0.26     0.00     1244      119        0     1363
 1975 076   137       29     1.72     0.00      339     0.26     0.00     1244      120        0     1364
 1975 077   138        9     1.99     0.00      339     0.26     0.00     1244      121        0     1365
 1975 078   139        0     1.96     0.00      339     0.26     0.00     1244      122        0     1366
 1975 079   140        0     1.99     0.00      339     0.26     0.00     1244      123        0     1367
 1975 080   141        0     1.99     0.00      339     0.26     0.00     1244      124        0     1368
 1975 081   142        0     1.46     0.00      339     0.27     0.00     1244      125        0     1369
 1975 082   143       12     1.58     0.00      339     0.27     0.00     1244      125        0     1369
 1975 083   144       53     1.85     0.00      339     0.27     0.00     1244      126        0     1370
 1975 084   145      217     2.05     0.00      339     0.27     0.00     1245      127        0     1372
 1975 085   146      518     2.07     0.00      340     0.27     0.00     1247      128        0     1375
 1975 086   147      576     1.52     0.00      340     0.28     0.00     1249      129        0     1378
 1975 087   148      217     1.49     0.00      341     0.28     0.00     1250      130        0     1379
 1975 088   149       48     1.81     0.00      341     0.28     0.00     1250      130        0     1380
 1975 089   150       14     1.68     0.00      341     0.28     0.00     1250      131        0     1381
 1975 090   151        1     1.57     0.00      341     0.28     0.00     1250      132        0     1382
 1975 091   152        0     1.80     0.00      341     0.28     0.00     1250      133        0     1383
 1975 092   153        1     1.62     0.00      341     0.29     0.00     1250      134        0     1384
 1975 093   154       19     1.63     0.00      341     0.29     0.00     1250      134        0     1384
 1975 094   155       17     1.58     0.00      341     0.29     0.00     1250      135        0     1385
 1975 095   156       20     1.77     0.00      341     0.29     0.00     1250      136        0     1386
 1975 096   157       11     1.51     0.00      341     0.29     0.00     1250      137        0     1387
 1975 097   158        7     1.81     0.00      341     0.29     0.00     1250      137        0     1388
 1975 098   159        3     1.52     0.00      341     0.30     0.00     1250      138        0     1388
 1975 099   160        6     1.55     0.00      341     0.30     0.00     1250      139        0     1389
 1975 100   161        2     1.78     0.00      341     0.30     0.00     1250      140        0     1390
 1975 101   162        7     1.54     0.00      341     0.30     0.00     1250      140        0     1391
 1975 102   163       32     1.77     0.00      341     0.30     0.00     1250      141        0     1392
 1975 103   164      301     1.95     0.00      341     0.30     0.00     1252      142        0     1394
 1975 104   165     1644     1.80     0.00      343     0.31     0.00     1258      143        0     1401
 1975 105   166     2479     1.43     0.00      345     0.31     0.00     1267      144        0     1410
 1975 106   167     3290     1.44     0.00      348     0.31     0.00     1279      144        0     1423
 1975 107   168     3693     1.50     0.00      352     0.31     0.00     1292      145        0     1437
 1975 108   169     3799     1.56     0.00      356     0.31     0.00     1306      146        0     1452
 1975 109   170     3885     1.42     0.00      360     0.31     0.00     1321      146        0     1467
 1975 110   171     4320     1.68     0.00      364     0.31     0.00     1336      147        0     1484
 1975 111   172     4501     1.71     0.00      369     0.32     0.00     1353      148        0     1501
 1975 112   173     4887     1.70     0.00      374     0.32     0.00     1371      149        0     1520
 1975 113   174     5291     1.69     0.00      379     0.32     0.00     1390      150        0     1540
 1975 114   175     5362     1.68     0.00      384     0.32     0.00     1410      150        0     1560
 1975 115   176     5372     1.68     0.00      390     0.32     0.00     1430      151        0     1581
 1975 116   177     5641     1.66     0.00      395     0.32     0.00     1450      152        0     1602
 1975 117   178     5982     1.66     0.00      401     0.33     0.00     1472      153        0     1625
 1975 118   179     5809     1.63     0.00      407     0.33     0.00     1494      154        0     1647
 1975 119   180     5967     1.63     0.00      413     0.33     0.00     1516      154        0     1670
 1975 120   181     5715     1.61     0.00      419     0.33     0.00     1536      155        0     1692
 1975 121   182     5272     1.55     0.00      424     0.33     0.00     1556      156        0     1712
 1975 122   183     4772     1.54     0.00      429     0.33     0.00     1573      157        0     1730
 1975 123   184     4843     1.42     0.00      434     0.34     0.00     1591      157        0     1748
 1975 124   185     4217     1.41     0.00      438     0.34     0.00     1607      158        0     1764
 1975 125   186     3833     1.40     0.00      442     0.34     0.00     1621      159        0     1779
 1975 126   187     3679     1.40     0.00      445     0.34     0.00     1634      159        0     1793
 1975 127   188     3512     1.39     0.00      449     0.34     0.00     1647      160        0     1807
 1975 128   189     3277     1.11     0.00      452     0.34     0.00     1659      160        0     1819
 1975 129   190     3715     1.28     0.00      456     0.34     0.00     1673      161        0     1834
 1975 130   191     4379     1.25     0.00      460     0.35     0.00     1689      162        0     1850
 1975 131   192     4594     1.23     0.00      465     0.35     0.00     1706      162        0     1868
 1975 132   193     4602     1.20     0.00      469     0.35     0.00     1723      163        0     1885
 1975 133   194     4314     1.04     0.00      474     0.35     0.00     1738      163        0     1902
 1975 134   195     4104     1.03     0.00      478     0.35     0.00     1753      164        0     1917
 1975 135   196     4241     1.14     0.00      482     0.35     0.00     1769      164        0     1933
 1975 136   197     4078     1.10     0.00      486     0.35     0.00     1784      165        0     1949
 1975 137   198     3262     0.74     0.00      489     0.35     0.00     1796      165        0     1961
 1975 138   199     2909     0.70     0.00      492     0.35     0.00     1807      165        0     1972
 1975 139   200     2776     0.80     0.00      495     0.35     0.00     1817      166        0     1983
 1975 140   201     2987     0.92     0.00      498     0.35     0.00     1828      166        0     1994
 1975 141   202     3728     0.90     0.00      502     0.36     0.00     1841      167        0     2008
 1975 142   203     4459     0.88     0.00      506     0.36     0.00     1858      167        0     2025
 1975 143   204     4833     0.86     0.00      511     0.36     0.00     1876      167        0     2043
 1975 144   205     4613     0.85     0.00      516     0.36     0.00     1892      168        0     2060
 1975 145   206     4114     0.82     0.00      520     0.36     0.00     1908      168        0     2076
 1975 146   207     3717     0.80     0.00      523     0.36     0.00     1921      169        0     2090
 1975 147   208     3571     0.78     0.00      527     0.36     0.00     1934      169        0     2103
 1975 148   209     3939     0.77     0.00      531     0.36     0.00     1949      169        0     2118
 1975 149   210     4632     0.76     0.00      536     0.36     0.00     1966      170        0     2135
 1975 150   211     5082     0.74     0.00      541     0.36     0.00     1984      170        0     2154
 1975 151   212     5046     0.73     0.00      546     0.36     0.00     2003      170        0     2173
 1975 152   213     4583     0.72     0.00      550     0.36     0.00     2020      171        0     2190
 1975 153   214     3997     0.70     0.00      554     0.37     0.00     2034      171        0     2205
 1975 154   215     2854     0.62     0.00      557     0.37     0.00     2045      171        0     2216
 1975 155   216     2586     0.61     0.00      560     0.37     0.00     2054      172        0     2226
 1975 156   217     2674     0.59     0.00      562     0.37     0.00     2064      172        0     2236
 1975 157   218     3527     0.58     0.00      566     0.37     0.00     2077      172        0     2249
 1975 158   219     4308     0.58     0.00      570     0.37     0.00     2093      172        0     2265
 1975 159   220     5185     0.57     0.00      575     0.37     0.00     2112      173        0     2285
 1975 160   221     5958     0.57     0.00      581     0.37     0.00     2134      173        0     2307
 1975 161   222     6623     0.56     0.00      588     0.37     0.00     2158      173        0     2331
 1975 162   223     6911     0.54     0.00      595     0.37     0.00     2184      173        0     2357
 1975 163   224     6719     0.53     0.00      602     0.37     0.00     2208      174        0     2382
 1975 164   225     6280     0.51     0.00      608     0.37     0.00     2231      174        0     2405
 1975 165   226     6129     0.50     0.00      614     0.37     0.00     2254      174        0     2428
 1975 166   227     6029     0.48     0.00      620     0.37     0.00     2276      174        0     2450
 1975 167   228     5768     0.46     0.00      626     0.37     0.00     2297      175        0     2472
 1975 168   229     5173     0.39     0.00      631     0.37     0.00     2316      175        0     2491
 1975 169   230     4913     0.38     0.00      636     0.37     0.00     2334      175        0     2509
 1975 170   231     4525     0.39     0.00      641     0.37     0.00     2351      175        0     2526
 1975 171   232     4229     0.39     0.00      645     0.37     0.00     2366      175        0     2541
 1975 172   233     4195     0.39     0.00      649     0.37     0.00     2382      175        0     2557
 1975 173   234     4494     0.39     0.00      653     0.38     0.00     2398      176        0     2574
 1975 174   235     4474     0.38     0.00      658     0.38     0.00     2414      176        0     2590
 1975 175   236     4534     0.33     0.00      662     0.38     0.00     2431      176        0     2607
 1975 176   237     4786     0.33     0.00      667     0.38     0.00     2449      176        0     2625
 1975 177   238     4617     0.33     0.00      672     0.38     0.00     2466      176        0     2642
 1975 178   239     4381     0.33     0.00      676     0.38     0.00     2482      176        0     2658
 1975 179   240     4091     0.33     0.00      680     0.38     0.00     2497      177        0     2673
 1975 180   241     3781     0.33     0.00      684     0.38     0.00     2511      177        0     2687
 1975 181   242     3335     0.32     0.00      687     0.38     0.00     2523      177        0     2700
 1975 182   243     3153     0.31     0.00      691     0.38     0.00     2534      177        0     2711
 1975 183   244     2944     0.31     0.00      694     0.38     0.00     2545      177        0     2722
 1975 184   245     2893     0.30     0.00      696     0.38     0.00     2556      177        0     2733
 1975 185   246     2964     0.29     0.00      699     0.38     0.00     2567      177        0     2744
 1975 186   247     3083     0.28     0.00      702     0.38     0.00     2578      178        0     2756
 1975 187   248     2923     0.27     0.00      705     0.38     0.00     2589      178        0     2766
 1975 188   249     2769     0.26     0.00      708     0.38     0.00     2599      178        0     2777
 1975 189   250     3097     0.23     0.00      711     0.38     0.00     2610      178        0     2788
 1975 190   251     3198     0.23     0.00      714     0.38     0.00     2622      178        0     2800
 1975 191   252     3174     0.23     0.00      718     0.38     0.00     2634      178        0     2812
 1975 192   253     3238     0.23     0.00      721     0.38     0.00     2646      178        0     2824
 1975 193   254     3218     0.22     0.00      724     0.38     0.00     2657      178        0     2836
 1975 194   255     3141     0.20     0.00      727     0.38     0.00     2669      178        0     2847
 1975 195   256     3234     0.21     0.00      730     0.38     0.00     2681      179        0     2859
 1975 196   257     3278     0.20     0.00      734     0.38     0.00     2693      179        0     2871
 1975 197   258     3249     0.20     0.00      737     0.38     0.00     2705      179        0     2883
 1975 198   259     3219     0.20     0.00      740     0.38     0.00     2717      179        0     2895
 1975 199   260     3387     0.18     0.00      744     0.38     0.00     2729      179        0     2908
 1975 200   261     3586     0.18     0.00      747     0.38     0.00     2742      179        0     2921
 1975 201   262     3541     0.18     0.00      751     0.38     0.00     2755      179        0     2934
 1975 202   263     3479     0.18     0.00      754     0.38     0.00     2768      179        0     2947
 1975 203   264     3295     0.18     0.00      757     0.38     0.00     2780      179        0     2959
 1975 204   265     3106     0.18     0.00      761     0.38     0.00     2791      179        0     2971
 1975 205   266     2977     0.18     0.00      764     0.38     0.00     2802      179        0     2982
 1975 206   267     2826     0.17     0.00      766     0.38     0.00     2813      180        0     2992
 1975 207   268     2682     0.18     0.00      769     0.38     0.00     2823      180        0     3002
 1975 208   269     2617     0.18     0.00      772     0.38     0.00     2832      180        0     3012
 1975 209   270     2590     0.17     0.00      774     0.38     0.00     2842      180        0     3021
 1975 210   271     2606     0.17     0.00      777     0.38     0.00     2851      180        0     3031
 1975 211   272     2733     0.17     0.00      780     0.38     0.00     2861      180        0     3041
 1975 212   273     2874     0.17     0.00      782     0.38     0.00     2872      180        0     3052
 1975 213   274     2812     0.16     0.00      785     0.38     0.00     2882      180        0     3062
 1975 214   275     2598     0.16     0.00      788     0.38     0.00     2892      180        0     3072

*DSSAT Cropping System Model Ver. 4.8.2.010 -develop  JUL 08, 2024 16:11:18

*RUN   2        : 30 KG N/HA                CSCER048 RORO7401    2
 MODEL          : CSCER048 - Wheat
 EXPERIMENT     : RORO7401 WH N RESPONSE,ROTHAMSTED  8FE(N)  (DSSAT3)
 DATA PATH      : C:\DSSAT48\Wheat\
 TREATMENT  2   : 30 KG N/HA                CSCER048
  
!               |------ Daily (g/ha) -----|--- Cumulative (kg/ha) ---|---- Cum CO2-equiv kg[CO2eq]/ha ---|
!                    CO2      N2O      CH4      CO2      N2O      CH4      CO2      N2O      CH4    Total
!                g[C]/ha  g[N]/ha  g[C]/ha kg[C]/ha kg[N]/ha kg[C]/ha    CO2eq    CO2eq    CO2eq    CO2eq
@YEAR DOY   DAS   CO2GED   N2OGED   CH4GED    CO2EC    N2OEC    CH4EC    CCEQC    NCEQC    MCEQC    TCEQC
 1974 305     1      554     0.00     0.00        1     0.00     0.00        2        0        0        2
 1974 306     2      552     0.02     0.00        1     0.00     0.00        4        0        0        4
 1974 307     3      902     0.03     0.00        2     0.00     0.00        7        0        0        7
 1974 308     4     1743     0.05     0.00        4     0.00     0.00       14        0        0       14
 1974 309     5     2674     0.08     0.00        6     0.00     0.00       24        0        0       24
 1974 310     6     4077     0.13     0.00       11     0.00     0.00       39        0        0       39
 1974 311     7     4795     0.16     0.00       15     0.00     0.00       56        0        0       56
 1974 312     8     4855     0.28     0.00       20     0.00     0.00       74        0        0       74
 1974 313     9     5767     0.40     0.00       26     0.00     0.00       95        1        0       96
 1974 314    10     7473     0.51     0.00       33     0.00     0.00      123        1        0      123
 1974 315    11     7450     0.65     0.00       41     0.00     0.00      150        1        0      151
 1974 316    12     7917     0.75     0.00       49     0.00     0.00      179        1        0      180
 1974 317    13     7172     1.01     0.00       56     0.00     0.00      205        2        0      207
 1974 318    14     4959     0.91     0.00       61     0.00     0.00      223        2        0      226
 1974 319    15     4578     0.99     0.00       65     0.01     0.00      240        3        0      243
 1974 320    16     4815     1.06     0.00       70     0.01     0.00      258        3        0      261
 1974 321    17     4677     1.13     0.00       75     0.01     0.00      275        4        0      279
 1974 322    18     4521     1.18     0.00       79     0.01     0.00      292        4        0      296
 1974 323    19     4261     1.21     0.00       84     0.01     0.00      307        5        0      312
 1974 324    20     2618     1.29     0.00       86     0.01     0.00      317        6        0      322
 1974 325    21     1151     1.28     0.00       88     0.01     0.00      321        6        0      327
 1974 326    22     1073     1.32     0.00       89     0.01     0.00      325        7        0      332
 1974 327    23     1931     1.59     0.00       91     0.02     0.00      332        7        0      340
 1974 328    24     3102     1.80     0.00       94     0.02     0.00      344        8        0      352
 1974 329    25     3385     1.66     0.00       97     0.02     0.00      356        9        0      365
 1974 330    26     4387     2.13     0.00      101     0.02     0.00      372       10        0      382
 1974 331    27     3683     2.24     0.00      105     0.02     0.00      386       11        0      397
 1974 332    28     2167     2.16     0.00      107     0.03     0.00      394       12        0      406
 1974 333    29     1159     2.00     0.00      108     0.03     0.00      398       13        0      411
 1974 334    30     1651     2.05     0.00      110     0.03     0.00      404       14        0      418
 1974 335    31     2360     2.51     0.00      112     0.03     0.00      413       15        0      428
 1974 336    32     3620     2.68     0.00      116     0.04     0.00      426       16        0      442
 1974 337    33     6265     2.90     0.00      122     0.04     0.00      449       18        0      467
 1974 338    34     8578     3.02     0.00      131     0.04     0.00      480       19        0      500
 1974 339    35     9801     3.08     0.00      141     0.04     0.00      516       21        0      537
 1974 340    36     9244     3.11     0.00      150     0.05     0.00      550       22        0      572
 1974 341    37     9002     3.13     0.00      159     0.05     0.00      583       24        0      607
 1974 342    38     8342     3.14     0.00      167     0.05     0.00      614       25        0      639
 1974 343    39     7811     3.07     0.00      175     0.06     0.00      643       27        0      669
 1974 344    40     6890     3.13     0.00      182     0.06     0.00      668       28        0      696
 1974 345    41     5029     2.22     0.00      187     0.06     0.00      686       29        0      715
 1974 346    42     3098     2.19     0.00      190     0.06     0.00      698       30        0      728
 1974 347    43     1428     2.12     0.00      192     0.07     0.00      703       31        0      734
 1974 348    44      398     2.59     0.00      192     0.07     0.00      704       32        0      737
 1974 349    45      202     2.72     0.00      192     0.07     0.00      705       34        0      739
 1974 350    46      277     2.89     0.00      192     0.07     0.00      706       35        0      741
 1974 351    47      531     2.31     0.00      193     0.08     0.00      708       36        0      744
 1974 352    48      593     2.81     0.00      194     0.08     0.00      710       37        0      748
 1974 353    49      913     2.98     0.00      194     0.08     0.00      714       39        0      752
 1974 354    50     1627     3.09     0.00      196     0.09     0.00      720       40        0      760
 1974 355    51     3302     3.10     0.00      199     0.09     0.00      732       42        0      773
 1974 356    52     4345     2.42     0.00      204     0.09     0.00      748       43        0      790
 1974 357    53     5934     2.34     0.00      210     0.09     0.00      769       44        0      813
 1974 358    54     6746     2.66     0.00      216     0.10     0.00      794       45        0      839
 1974 359    55     6961     2.68     0.00      223     0.10     0.00      820       46        0      866
 1974 360    56     5752     2.31     0.00      229     0.10     0.00      841       47        0      888
 1974 361    57     4641     2.24     0.00      234     0.10     0.00      858       48        0      906
 1974 362    58     4689     2.51     0.00      238     0.11     0.00      875       50        0      925
 1974 363    59     4792     2.64     0.00      243     0.11     0.00      893       51        0      943
 1974 364    60     5551     2.72     0.00      249     0.11     0.00      913       52        0      965
 1974 365    61     5181     2.82     0.00      254     0.11     0.00      932       53        0      985
 1975 001    62     4474     2.80     0.00      258     0.12     0.00      948       55        0     1003
 1975 002    63     3525     2.30     0.00      262     0.12     0.00      961       56        0     1017
 1975 003    64     2829     2.60     0.00      265     0.12     0.00      972       57        0     1029
 1975 004    65     1937     2.76     0.00      267     0.12     0.00      979       58        0     1037
 1975 005    66     1846     2.79     0.00      269     0.13     0.00      986       60        0     1045
 1975 006    67     1821     2.80     0.00      270     0.13     0.00      992       61        0     1053
 1975 007    68     2400     2.06     0.00      273     0.13     0.00     1001       62        0     1063
 1975 008    69     2171     2.41     0.00      275     0.13     0.00     1009       63        0     1072
 1975 009    70     2112     2.69     0.00      277     0.14     0.00     1017       64        0     1081
 1975 010    71     2962     2.79     0.00      280     0.14     0.00     1028       66        0     1093
 1975 011    72     3815     2.78     0.00      284     0.14     0.00     1042       67        0     1109
 1975 012    73     3861     2.77     0.00      288     0.15     0.00     1056       68        0     1124
 1975 013    74     3972     2.02     0.00      292     0.15     0.00     1070       69        0     1140
 1975 014    75     3404     2.45     0.00      295     0.15     0.00     1083       70        0     1153
 1975 015    76     3242     2.13     0.00      298     0.15     0.00     1095       71        0     1166
 1975 016    77     3039     2.10     0.00      301     0.15     0.00     1106       72        0     1178
 1975 017    78     2505     2.05     0.00      304     0.16     0.00     1115       73        0     1188
 1975 018    79     1781     2.01     0.00      306     0.16     0.00     1122       74        0     1196
 1975 019    80     1094     1.90     0.00      307     0.16     0.00     1126       75        0     1201
 1975 020    81      367     1.88     0.00      307     0.16     0.00     1127       76        0     1203
 1975 021    82      144     1.77     0.00      307     0.16     0.00     1128       77        0     1204
 1975 022    83      133     1.75     0.00      307     0.17     0.00     1128       78        0     1206
 1975 023    84      179     1.65     0.00      308     0.17     0.00     1129       78        0     1207
 1975 024    85      275     1.75     0.00      308     0.17     0.00     1130       79        0     1209
 1975 025    86      531     1.63     0.00      308     0.17     0.00     1132       80        0     1212
 1975 026    87     1334     1.66     0.00      310     0.17     0.00     1137       81        0     1217
 1975 027    88     1185     1.58     0.00      311     0.17     0.00     1141       81        0     1222
 1975 028    89      742     1.49     0.00      312     0.18     0.00     1144       82        0     1226
 1975 029    90      576     1.45     0.00      312     0.18     0.00     1146       83        0     1229
 1975 030    91      433     1.44     0.00      313     0.18     0.00     1147       84        0     1231
 1975 031    92      430     1.48     0.00      313     0.18     0.00     1149       84        0     1233
 1975 032    93     1210     1.46     0.00      314     0.18     0.00     1153       85        0     1238
 1975 033    94     1549     1.72     0.00      316     0.18     0.00     1159       86        0     1245
 1975 034    95     1694     1.83     0.00      318     0.18     0.00     1165       87        0     1252
 1975 035    96     1773     1.96     0.00      319     0.19     0.00     1172       87        0     1259
 1975 036    97     1342     2.01     0.00      321     0.19     0.00     1177       88        0     1265
 1975 037    98      295     2.05     0.00      321     0.19     0.00     1178       89        0     1267
 1975 038    99      110     2.05     0.00      321     0.19     0.00     1178       90        0     1269
 1975 039   100      118     2.05     0.00      321     0.20     0.00     1179       91        0     1270
 1975 040   101       81     2.06     0.00      321     0.20     0.00     1179       92        0     1271
 1975 041   102       64     2.05     0.00      321     0.20     0.00     1179       93        0     1272
 1975 042   103       49     1.73     0.00      321     0.20     0.00     1179       94        0     1273
 1975 043   104       77     1.51     0.00      321     0.20     0.00     1180       95        0     1274
 1975 044   105      168     1.53     0.00      322     0.20     0.00     1180       95        0     1276
 1975 045   106      344     1.61     0.00      322     0.21     0.00     1182       96        0     1278
 1975 046   107      361     1.50     0.00      322     0.21     0.00     1183       97        0     1280
 1975 047   108      336     1.68     0.00      323     0.21     0.00     1184       98        0     1282
 1975 048   109      256     1.67     0.00      323     0.21     0.00     1185       99        0     1284
 1975 049   110      141     1.43     0.00      323     0.21     0.00     1186       99        0     1285
 1975 050   111       84     1.39     0.00      323     0.21     0.00     1186      100        0     1286
 1975 051   112      125     1.63     0.00      323     0.21     0.00     1186      101        0     1287
 1975 052   113      185     1.81     0.00      323     0.22     0.00     1187      101        0     1288
 1975 053   114      187     1.84     0.00      324     0.22     0.00     1188      102        0     1290
 1975 054   115      124     1.85     0.00      324     0.22     0.00     1188      103        0     1291
 1975 055   116      117     1.86     0.00      324     0.22     0.00     1189      104        0     1293
 1975 056   117      122     1.88     0.00      324     0.22     0.00     1189      105        0     1294
 1975 057   118       69     1.90     0.00      324     0.23     0.00     1189      106        0     1295
 1975 058   119      114     1.92     0.00      324     0.23     0.00     1190      107        0     1296
 1975 059   120       99     1.94     0.00      324     0.23     0.00     1190      108        0     1298
 1975 060   121       80     1.96     0.00      324     0.23     0.00     1190      109        0     1299
 1975 061   122      148     1.99     0.00      324     0.23     0.00     1191      109        0     1300
 1975 062   123      709     1.57     0.00      325     0.24     0.00     1193      110        0     1304
 1975 063   124     1652     1.86     0.00      327     0.24     0.00     1200      111        0     1311
 1975 064   125     2099     1.58     0.00      329     0.24     0.00     1207      112        0     1319
 1975 065   126     2195     1.81     0.00      331     0.24     0.00     1215      113        0     1328
 1975 066   127     2123     1.51     0.00      333     0.24     0.00     1223      113        0     1336
 1975 067   128     1975     1.49     0.00      335     0.24     0.00     1230      114        0     1344
 1975 068   129     1359     1.45     0.00      337     0.25     0.00     1235      115        0     1350
 1975 069   130     1110     1.46     0.00      338     0.25     0.00     1239      115        0     1355
 1975 070   131      670     1.70     0.00      338     0.25     0.00     1242      116        0     1358
 1975 071   132      214     1.42     0.00      339     0.25     0.00     1243      117        0     1360
 1975 072   133      114     1.37     0.00      339     0.25     0.00     1243      118        0     1361
 1975 073   134       94     1.35     0.00      339     0.25     0.00     1243      118        0     1362
 1975 074   135       53     1.41     0.00      339     0.25     0.00     1244      119        0     1362
 1975 075   136       43     1.41     0.00      339     0.26     0.00     1244      119        0     1363
 1975 076   137       29     1.72     0.00      339     0.26     0.00     1244      120        0     1364
 1975 077   138        9     1.99     0.00      339     0.26     0.00     1244      121        0     1365
 1975 078   139        0     1.96     0.00      339     0.26     0.00     1244      122        0     1366
 1975 079   140        0     1.99     0.00      339     0.26     0.00     1244      123        0     1367
 1975 080   141        0     1.99     0.00      339     0.26     0.00     1244      124        0     1368
 1975 081   142        0     1.46     0.00      339     0.27     0.00     1244      125        0     1369
 1975 082   143       12     1.58     0.00      339     0.27     0.00     1244      125        0     1369
 1975 083   144       53     1.85     0.00      339     0.27     0.00     1244      126        0     1370
 1975 084   145      217     2.05     0.00      339     0.27     0.00     1245      127        0     1372
 1975 085   146      518     2.07     0.00      340     0.27     0.00     1247      128        0     1375
 1975 086   147      576     1.52     0.00      340     0.28     0.00     1249      129        0     1378
 1975 087   148      217     1.49     0.00      341     0.28     0.00     1250      130        0     1379
 1975 088   149       48     1.81     0.00      341     0.28     0.00     1250      130        0     1380
 1975 089   150       14     1.68     0.00      341     0.28     0.00     1250      131        0     1381
 1975 090   151        1     1.57     0.00      341     0.28     0.00     1250      132        0     1382
 1975 091   152        0     1.80     0.00      341     0.28     0.00     1250      133        0     1383
 1975 092   153        1     1.62     0.00      341     0.29     0.00     1250      134        0     1384
 1975 093   154       19     1.63     0.00      341     0.29     0.00     1250      134        0     1384
 1975 094   155       17     1.58     0.00      341     0.29     0.00     1250      135        0     1385
 1975 095   156       20     1.77     0.00      341     0.29     0.00     1250      136        0     1386
 1975 096   157       11     1.51     0.00      341     0.29     0.00     1250      137        0     1387
 1975 097   158        7     1.81     0.00      341     0.29     0.00     1250      137        0     1388
 1975 098   159        3     1.52     0.00      341     0.30     0.00     1250      138        0     1388
 1975 099   160        6     1.55     0.00      341     0.30     0.00     1250      139        0     1389
 1975 100   161        2     1.78     0.00      341     0.30     0.00     1250      140        0     1390
 1975 101   162        7     1.54     0.00      341     0.30     0.00     1250      140        0     1391
 1975 102   163       32     1.77     0.00      341     0.30     0.00     1250      141        0     1392
 1975 103   164      301     1.95     0.00      341     0.30     0.00     1252      142        0     1394
 1975 104   165     1644     1.80     0.00      343     0.31     0.00     1258      143        0     1401
 1975 105   166     2479     1.43     0.00      345     0.31     0.00     1267      144        0     1410
 1975 106   167     3290     1.44     0.00      348     0.31     0.00     1279      144        0     1423
 1975 107   168     3693     1.50     0.00      352     0.31     0.00     1292      145        0     1437
 1975 108   169     3799     1.56     0.00      356     0.31     0.00     1306      146        0     1452
 1975 109   170     8408     1.53     0.00      364     0.31     0.00     1337      147        0     1484
 1975 110   171    11760     1.96     0.00      376     0.31     0.00     1380      147        0     1528
 1975 111   172    11870     2.32     0.00      388     0.32     0.00     1424      149        0     1572
 1975 112   173    12660     2.49     0.00      401     0.32     0.00     1470      150        0     1620
 1975 113   174    13278     2.55     0.00      414     0.32     0.00     1519      151        0     1670
 1975 114   175    12016     2.53     0.00      426     0.32     0.00     1563      152        0     1715
 1975 115   176    11227     2.48     0.00      437     0.33     0.00     1604      153        0     1758
 1975 116   177    12074     2.37     0.00      449     0.33     0.00     1649      154        0     1803
 1975 117   178    12053     2.29     0.00      461     0.33     0.00     1693      155        0     1848
 1975 118   179    10956     2.17     0.00      472     0.33     0.00     1733      156        0     1890
 1975 119   180     9870     2.10     0.00      482     0.34     0.00     1769      157        0     1927
 1975 120   181     8755     1.99     0.00      491     0.34     0.00     1801      158        0     1960
 1975 121   182     8165     1.85     0.00      499     0.34     0.00     1831      159        0     1991
 1975 122   183     6844     1.79     0.00      506     0.34     0.00     1857      160        0     2017
 1975 123   184     9253     1.58     0.00      515     0.34     0.00     1890      161        0     2051
 1975 124   185     6912     1.55     0.00      522     0.35     0.00     1916      162        0     2077
 1975 125   186     5744     1.54     0.00      528     0.35     0.00     1937      162        0     2099
 1975 126   187     5169     1.52     0.00      533     0.35     0.00     1956      163        0     2119
 1975 127   188     4658     1.50     0.00      538     0.35     0.00     1973      164        0     2137
 1975 128   189     7026     1.07     0.00      545     0.35     0.00     1999      164        0     2163
 1975 129   190     9138     1.31     0.00      554     0.35     0.00     2032      165        0     2197
 1975 130   191     8931     1.28     0.00      563     0.35     0.00     2065      165        0     2230
 1975 131   192     8631     1.25     0.00      571     0.35     0.00     2097      166        0     2263
 1975 132   193     7890     1.22     0.00      579     0.36     0.00     2126      167        0     2292
 1975 133   194     7817     1.09     0.00      587     0.36     0.00     2154      167        0     2321
 1975 134   195     7444     1.11     0.00      594     0.36     0.00     2182      168        0     2349
 1975 135   196     7263     1.12     0.00      602     0.36     0.00     2208      168        0     2376
 1975 136   197     6397     1.08     0.00      608     0.36     0.00     2232      169        0     2400
 1975 137   198     5187     0.74     0.00      613     0.36     0.00     2251      169        0     2420
 1975 138   199     4127     0.70     0.00      617     0.36     0.00     2266      169        0     2435
 1975 139   200     3910     0.81     0.00      621     0.36     0.00     2280      170        0     2450
 1975 140   201     4363     0.91     0.00      626     0.36     0.00     2296      170        0     2466
 1975 141   202     5404     0.89     0.00      631     0.36     0.00     2316      170        0     2487
 1975 142   203     6452     0.88     0.00      638     0.37     0.00     2340      171        0     2511
 1975 143   204     6703     0.86     0.00      644     0.37     0.00     2365      171        0     2536
 1975 144   205     6359     0.85     0.00      651     0.37     0.00     2388      172        0     2560
 1975 145   206     5438     0.81     0.00      656     0.37     0.00     2408      172        0     2580
 1975 146   207     4863     0.80     0.00      661     0.37     0.00     2426      172        0     2598
 1975 147   208     4727     0.78     0.00      666     0.37     0.00     2443      173        0     2616
 1975 148   209     5477     0.77     0.00      671     0.37     0.00     2463      173        0     2636
 1975 149   210     6556     0.77     0.00      678     0.37     0.00     2487      174        0     2661
 1975 150   211     6995     0.75     0.00      685     0.37     0.00     2513      174        0     2687
 1975 151   212     6546     0.73     0.00      691     0.37     0.00     2537      174        0     2711
 1975 152   213     5386     0.72     0.00      697     0.37     0.00     2557      175        0     2731
 1975 153   214     4294     0.70     0.00      701     0.37     0.00     2572      175        0     2747
 1975 154   215     3547     0.61     0.00      704     0.37     0.00     2585      175        0     2761
 1975 155   216     3236     0.60     0.00      708     0.37     0.00     2597      175        0     2773
 1975 156   217     3283     0.59     0.00      711     0.38     0.00     2609      176        0     2785
 1975 157   218     4070     0.58     0.00      715     0.38     0.00     2624      176        0     2800
 1975 158   219     5255     0.57     0.00      720     0.38     0.00     2644      176        0     2820
 1975 159   220     6395     0.58     0.00      727     0.38     0.00     2667      177        0     2844
 1975 160   221     7128     0.58     0.00      734     0.38     0.00     2693      177        0     2870
 1975 161   222     7550     0.57     0.00      741     0.38     0.00     2721      177        0     2898
 1975 162   223     7175     0.55     0.00      749     0.38     0.00     2747      177        0     2925
 1975 163   224     6327     0.54     0.00      755     0.38     0.00     2770      178        0     2948
 1975 164   225     5722     0.52     0.00      761     0.38     0.00     2791      178        0     2969
 1975 165   226     5393     0.51     0.00      766     0.38     0.00     2811      178        0     2989
 1975 166   227     5131     0.49     0.00      771     0.38     0.00     2830      178        0     3008
 1975 167   228     4901     0.48     0.00      776     0.38     0.00     2848      179        0     3027
 1975 168   229     6618     0.40     0.00      783     0.38     0.00     2872      179        0     3051
 1975 169   230     6321     0.39     0.00      789     0.38     0.00     2896      179        0     3074
 1975 170   231     5159     0.41     0.00      794     0.38     0.00     2914      179        0     3094
 1975 171   232     4167     0.42     0.00      798     0.38     0.00     2930      179        0     3109
 1975 172   233     3934     0.41     0.00      802     0.38     0.00     2944      179        0     3124
 1975 173   234     4091     0.40     0.00      806     0.38     0.00     2959      180        0     3139
 1975 174   235     3883     0.39     0.00      810     0.38     0.00     2973      180        0     3153
 1975 175   236     7091     0.33     0.00      817     0.38     0.00     2999      180        0     3180
 1975 176   237     6590     0.33     0.00      824     0.38     0.00     3024      180        0     3204
 1975 177   238     4705     0.35     0.00      829     0.39     0.00     3041      180        0     3221
 1975 178   239     3870     0.35     0.00      832     0.39     0.00     3055      181        0     3236
 1975 179   240     3406     0.34     0.00      836     0.39     0.00     3068      181        0     3248
 1975 180   241     3026     0.33     0.00      839     0.39     0.00     3079      181        0     3260
 1975 181   242     2526     0.32     0.00      841     0.39     0.00     3088      181        0     3269
 1975 182   243     2301     0.31     0.00      844     0.39     0.00     3096      181        0     3278
 1975 183   244     2037     0.30     0.00      846     0.39     0.00     3104      181        0     3285
 1975 184   245     1907     0.29     0.00      848     0.39     0.00     3111      181        0     3292
 1975 185   246     1848     0.28     0.00      850     0.39     0.00     3118      182        0     3299
 1975 186   247     1813     0.27     0.00      851     0.39     0.00     3124      182        0     3306
 1975 187   248     1694     0.26     0.00      853     0.39     0.00     3131      182        0     3312
 1975 188   249     1647     0.26     0.00      855     0.39     0.00     3137      182        0     3319
 1975 189   250     2782     0.23     0.00      857     0.39     0.00     3147      182        0     3329
 1975 190   251     2625     0.23     0.00      860     0.39     0.00     3156      182        0     3339
 1975 191   252     2431     0.23     0.00      863     0.39     0.00     3165      182        0     3348
 1975 192   253     2403     0.22     0.00      865     0.39     0.00     3174      182        0     3357
 1975 193   254     2222     0.22     0.00      867     0.39     0.00     3182      182        0     3365
 1975 194   255     3733     0.20     0.00      871     0.39     0.00     3196      183        0     3379
 1975 195   256     2716     0.21     0.00      874     0.39     0.00     3206      183        0     3389
 1975 196   257     2801     0.20     0.00      876     0.39     0.00     3216      183        0     3399
 1975 197   258     3261     0.19     0.00      880     0.39     0.00     3228      183        0     3411
 1975 198   259     2756     0.20     0.00      882     0.39     0.00     3238      183        0     3421
 1975 199   260     7157     0.17     0.00      890     0.39     0.00     3265      183        0     3448
 1975 200   261     5231     0.17     0.00      895     0.39     0.00     3284      183        0     3467
 1975 201   262     3869     0.18     0.00      899     0.39     0.00     3298      183        0     3481
 1975 202   263     2906     0.19     0.00      902     0.39     0.00     3309      183        0     3492
 1975 203   264     2572     0.19     0.00      904     0.39     0.00     3318      183        0     3501
 1975 204   265     2365     0.18     0.00      906     0.39     0.00     3327      183        0     3510
 1975 205   266     2412     0.18     0.00      909     0.39     0.00     3336      183        0     3519
 1975 206   267     2865     0.17     0.00      912     0.39     0.00     3346      184        0     3530
 1975 207   268     2089     0.17     0.00      914     0.39     0.00     3354      184        0     3538
 1975 208   269     1958     0.17     0.00      916     0.39     0.00     3361      184        0     3545
 1975 209   270     1838     0.17     0.00      918     0.39     0.00     3368      184        0     3552
 1975 210   271     1748     0.16     0.00      919     0.39     0.00     3374      184        0     3558
 1975 211   272     1745     0.16     0.00      921     0.39     0.00     3381      184        0     3565
 1975 212   273     1715     0.16     0.00      923     0.39     0.00     3387      184        0     3571
 1975 213   274     1574     0.15     0.00      924     0.39     0.00     3393      184        0     3577
 1975 214   275     1422     0.15     0.00      926     0.39     0.00     3398      184        0     3582

*DSSAT Cropping System Model Ver. 4.8.2.010 -develop  JUL 08, 2024 16:11:18

*RUN   3        : 60 KG N/HA                CSCER048 RORO7401    3
 MODEL          : CSCER048 - Wheat
 EXPERIMENT     : RORO7401 WH N RESPONSE,ROTHAMSTED  8FE(N)  (DSSAT3)
 DATA PATH      : C:\DSSAT48\Wheat\
 TREATMENT  3   : 60 KG N/HA                CSCER048
  
!               |------ Daily (g/ha) -----|--- Cumulative (kg/ha) ---|---- Cum CO2-equiv kg[CO2eq]/ha ---|
!                    CO2      N2O      CH4      CO2      N2O      CH4      CO2      N2O      CH4    Total
!                g[C]/ha  g[N]/ha  g[C]/ha kg[C]/ha kg[N]/ha kg[C]/ha    CO2eq    CO2eq    CO2eq    CO2eq
@YEAR DOY   DAS   CO2GED   N2OGED   CH4GED    CO2EC    N2OEC    CH4EC    CCEQC    NCEQC    MCEQC    TCEQC
 1974 305     1      554     0.00     0.00        1     0.00     0.00        2        0        0        2
 1974 306     2      552     0.02     0.00        1     0.00     0.00        4        0        0        4
 1974 307     3      902     0.03     0.00        2     0.00     0.00        7        0        0        7
 1974 308     4     1743     0.05     0.00        4     0.00     0.00       14        0        0       14
 1974 309     5     2674     0.08     0.00        6     0.00     0.00       24        0        0       24
 1974 310     6     4077     0.13     0.00       11     0.00     0.00       39        0        0       39
 1974 311     7     4795     0.16     0.00       15     0.00     0.00       56        0        0       56
 1974 312     8     4855     0.28     0.00       20     0.00     0.00       74        0        0       74
 1974 313     9     5767     0.40     0.00       26     0.00     0.00       95        1        0       96
 1974 314    10     7473     0.51     0.00       33     0.00     0.00      123        1        0      123
 1974 315    11     7450     0.65     0.00       41     0.00     0.00      150        1        0      151
 1974 316    12     7917     0.75     0.00       49     0.00     0.00      179        1        0      180
 1974 317    13     7172     1.01     0.00       56     0.00     0.00      205        2        0      207
 1974 318    14     4959     0.91     0.00       61     0.00     0.00      223        2        0      226
 1974 319    15     4578     0.99     0.00       65     0.01     0.00      240        3        0      243
 1974 320    16     4815     1.06     0.00       70     0.01     0.00      258        3        0      261
 1974 321    17     4677     1.13     0.00       75     0.01     0.00      275        4        0      279
 1974 322    18     4521     1.18     0.00       79     0.01     0.00      292        4        0      296
 1974 323    19     4261     1.21     0.00       84     0.01     0.00      307        5        0      312
 1974 324    20     2618     1.29     0.00       86     0.01     0.00      317        6        0      322
 1974 325    21     1151     1.28     0.00       88     0.01     0.00      321        6        0      327
 1974 326    22     1073     1.32     0.00       89     0.01     0.00      325        7        0      332
 1974 327    23     1931     1.59     0.00       91     0.02     0.00      332        7        0      340
 1974 328    24     3102     1.80     0.00       94     0.02     0.00      344        8        0      352
 1974 329    25     3385     1.66     0.00       97     0.02     0.00      356        9        0      365
 1974 330    26     4387     2.13     0.00      101     0.02     0.00      372       10        0      382
 1974 331    27     3683     2.24     0.00      105     0.02     0.00      386       11        0      397
 1974 332    28     2167     2.16     0.00      107     0.03     0.00      394       12        0      406
 1974 333    29     1159     2.00     0.00      108     0.03     0.00      398       13        0      411
 1974 334    30     1651     2.05     0.00      110     0.03     0.00      404       14        0      418
 1974 335    31     2360     2.51     0.00      112     0.03     0.00      413       15        0      428
 1974 336    32     3620     2.68     0.00      116     0.04     0.00      426       16        0      442
 1974 337    33     6265     2.90     0.00      122     0.04     0.00      449       18        0      467
 1974 338    34     8578     3.02     0.00      131     0.04     0.00      480       19        0      500
 1974 339    35     9801     3.08     0.00      141     0.04     0.00      516       21        0      537
 1974 340    36     9244     3.11     0.00      150     0.05     0.00      550       22        0      572
 1974 341    37     9002     3.13     0.00      159     0.05     0.00      583       24        0      607
 1974 342    38     8342     3.14     0.00      167     0.05     0.00      614       25        0      639
 1974 343    39     7811     3.07     0.00      175     0.06     0.00      643       27        0      669
 1974 344    40     6890     3.13     0.00      182     0.06     0.00      668       28        0      696
 1974 345    41     5029     2.22     0.00      187     0.06     0.00      686       29        0      715
 1974 346    42     3098     2.19     0.00      190     0.06     0.00      698       30        0      728
 1974 347    43     1428     2.12     0.00      192     0.07     0.00      703       31        0      734
 1974 348    44      398     2.59     0.00      192     0.07     0.00      704       32        0      737
 1974 349    45      202     2.72     0.00      192     0.07     0.00      705       34        0      739
 1974 350    46      277     2.89     0.00      192     0.07     0.00      706       35        0      741
 1974 351    47      531     2.31     0.00      193     0.08     0.00      708       36        0      744
 1974 352    48      593     2.81     0.00      194     0.08     0.00      710       37        0      748
 1974 353    49      913     2.98     0.00      194     0.08     0.00      714       39        0      752
 1974 354    50     1627     3.09     0.00      196     0.09     0.00      720       40        0      760
 1974 355    51     3302     3.10     0.00      199     0.09     0.00      732       42        0      773
 1974 356    52     4345     2.42     0.00      204     0.09     0.00      748       43        0      790
 1974 357    53     5934     2.34     0.00      210     0.09     0.00      769       44        0      813
 1974 358    54     6746     2.66     0.00      216     0.10     0.00      794       45        0      839
 1974 359    55     6961     2.68     0.00      223     0.10     0.00      820       46        0      866
 1974 360    56     5752     2.31     0.00      229     0.10     0.00      841       47        0      888
 1974 361    57     4641     2.24     0.00      234     0.10     0.00      858       48        0      906
 1974 362    58     4689     2.51     0.00      238     0.11     0.00      875       50        0      925
 1974 363    59     4792     2.64     0.00      243     0.11     0.00      893       51        0      943
 1974 364    60     5551     2.72     0.00      249     0.11     0.00      913       52        0      965
 1974 365    61     5181     2.82     0.00      254     0.11     0.00      932       53        0      985
 1975 001    62     4474     2.80     0.00      258     0.12     0.00      948       55        0     1003
 1975 002    63     3525     2.30     0.00      262     0.12     0.00      961       56        0     1017
 1975 003    64     2829     2.60     0.00      265     0.12     0.00      972       57        0     1029
 1975 004    65     1937     2.76     0.00      267     0.12     0.00      979       58        0     1037
 1975 005    66     1846     2.79     0.00      269     0.13     0.00      986       60        0     1045
 1975 006    67     1821     2.80     0.00      270     0.13     0.00      992       61        0     1053
 1975 007    68     2400     2.06     0.00      273     0.13     0.00     1001       62        0     1063
 1975 008    69     2171     2.41     0.00      275     0.13     0.00     1009       63        0     1072
 1975 009    70     2112     2.69     0.00      277     0.14     0.00     1017       64        0     1081
 1975 010    71     2962     2.79     0.00      280     0.14     0.00     1028       66        0     1093
 1975 011    72     3815     2.78     0.00      284     0.14     0.00     1042       67        0     1109
 1975 012    73     3861     2.77     0.00      288     0.15     0.00     1056       68        0     1124
 1975 013    74     3972     2.02     0.00      292     0.15     0.00     1070       69        0     1140
 1975 014    75     3404     2.45     0.00      295     0.15     0.00     1083       70        0     1153
 1975 015    76     3242     2.13     0.00      298     0.15     0.00     1095       71        0     1166
 1975 016    77     3039     2.10     0.00      301     0.15     0.00     1106       72        0     1178
 1975 017    78     2505     2.05     0.00      304     0.16     0.00     1115       73        0     1188
 1975 018    79     1781     2.01     0.00      306     0.16     0.00     1122       74        0     1196
 1975 019    80     1094     1.90     0.00      307     0.16     0.00     1126       75        0     1201
 1975 020    81      367     1.88     0.00      307     0.16     0.00     1127       76        0     1203
 1975 021    82      144     1.77     0.00      307     0.16     0.00     1128       77        0     1204
 1975 022    83      133     1.75     0.00      307     0.17     0.00     1128       78        0     1206
 1975 023    84      179     1.65     0.00      308     0.17     0.00     1129       78        0     1207
 1975 024    85      275     1.75     0.00      308     0.17     0.00     1130       79        0     1209
 1975 025    86      531     1.63     0.00      308     0.17     0.00     1132       80        0     1212
 1975 026    87     1334     1.66     0.00      310     0.17     0.00     1137       81        0     1217
 1975 027    88     1185     1.58     0.00      311     0.17     0.00     1141       81        0     1222
 1975 028    89      742     1.49     0.00      312     0.18     0.00     1144       82        0     1226
 1975 029    90      576     1.45     0.00      312     0.18     0.00     1146       83        0     1229
 1975 030    91      433     1.44     0.00      313     0.18     0.00     1147       84        0     1231
 1975 031    92      430     1.48     0.00      313     0.18     0.00     1149       84        0     1233
 1975 032    93     1210     1.46     0.00      314     0.18     0.00     1153       85        0     1238
 1975 033    94     1549     1.72     0.00      316     0.18     0.00     1159       86        0     1245
 1975 034    95     1694     1.83     0.00      318     0.18     0.00     1165       87        0     1252
 1975 035    96     1773     1.96     0.00      319     0.19     0.00     1172       87        0     1259
 1975 036    97     1342     2.01     0.00      321     0.19     0.00     1177       88        0     1265
 1975 037    98      295     2.05     0.00      321     0.19     0.00     1178       89        0     1267
 1975 038    99      110     2.05     0.00      321     0.19     0.00     1178       90        0     1269
 1975 039   100      118     2.05     0.00      321     0.20     0.00     1179       91        0     1270
 1975 040   101       81     2.06     0.00      321     0.20     0.00     1179       92        0     1271
 1975 041   102       64     2.05     0.00      321     0.20     0.00     1179       93        0     1272
 1975 042   103       49     1.73     0.00      321     0.20     0.00     1179       94        0     1273
 1975 043   104       77     1.51     0.00      321     0.20     0.00     1180       95        0     1274
 1975 044   105      168     1.53     0.00      322     0.20     0.00     1180       95        0     1276
 1975 045   106      344     1.61     0.00      322     0.21     0.00     1182       96        0     1278
 1975 046   107      361     1.50     0.00      322     0.21     0.00     1183       97        0     1280
 1975 047   108      336     1.68     0.00      323     0.21     0.00     1184       98        0     1282
 1975 048   109      256     1.67     0.00      323     0.21     0.00     1185       99        0     1284
 1975 049   110      141     1.43     0.00      323     0.21     0.00     1186       99        0     1285
 1975 050   111       84     1.39     0.00      323     0.21     0.00     1186      100        0     1286
 1975 051   112      125     1.63     0.00      323     0.21     0.00     1186      101        0     1287
 1975 052   113      185     1.81     0.00      323     0.22     0.00     1187      101        0     1288
 1975 053   114      187     1.84     0.00      324     0.22     0.00     1188      102        0     1290
 1975 054   115      124     1.85     0.00      324     0.22     0.00     1188      103        0     1291
 1975 055   116      117     1.86     0.00      324     0.22     0.00     1189      104        0     1293
 1975 056   117      122     1.88     0.00      324     0.22     0.00     1189      105        0     1294
 1975 057   118       69     1.90     0.00      324     0.23     0.00     1189      106        0     1295
 1975 058   119      114     1.92     0.00      324     0.23     0.00     1190      107        0     1296
 1975 059   120       99     1.94     0.00      324     0.23     0.00     1190      108        0     1298
 1975 060   121       80     1.96     0.00      324     0.23     0.00     1190      109        0     1299
 1975 061   122      148     1.99     0.00      324     0.23     0.00     1191      109        0     1300
 1975 062   123      709     1.57     0.00      325     0.24     0.00     1193      110        0     1304
 1975 063   124     1652     1.86     0.00      327     0.24     0.00     1200      111        0     1311
 1975 064   125     2099     1.58     0.00      329     0.24     0.00     1207      112        0     1319
 1975 065   126     2195     1.81     0.00      331     0.24     0.00     1215      113        0     1328
 1975 066   127     2123     1.51     0.00      333     0.24     0.00     1223      113        0     1336
 1975 067   128     1975     1.49     0.00      335     0.24     0.00     1230      114        0     1344
 1975 068   129     1359     1.45     0.00      337     0.25     0.00     1235      115        0     1350
 1975 069   130     1110     1.46     0.00      338     0.25     0.00     1239      115        0     1355
 1975 070   131      670     1.70     0.00      338     0.25     0.00     1242      116        0     1358
 1975 071   132      214     1.42     0.00      339     0.25     0.00     1243      117        0     1360
 1975 072   133      114     1.37     0.00      339     0.25     0.00     1243      118        0     1361
 1975 073   134       94     1.35     0.00      339     0.25     0.00     1243      118        0     1362
 1975 074   135       53     1.41     0.00      339     0.25     0.00     1244      119        0     1362
 1975 075   136       43     1.41     0.00      339     0.26     0.00     1244      119        0     1363
 1975 076   137       29     1.72     0.00      339     0.26     0.00     1244      120        0     1364
 1975 077   138        9     1.99     0.00      339     0.26     0.00     1244      121        0     1365
 1975 078   139        0     1.96     0.00      339     0.26     0.00     1244      122        0     1366
 1975 079   140        0     1.99     0.00      339     0.26     0.00     1244      123        0     1367
 1975 080   141        0     1.99     0.00      339     0.26     0.00     1244      124        0     1368
 1975 081   142        0     1.46     0.00      339     0.27     0.00     1244      125        0     1369
 1975 082   143       12     1.58     0.00      339     0.27     0.00     1244      125        0     1369
 1975 083   144       53     1.85     0.00      339     0.27     0.00     1244      126        0     1370
 1975 084   145      217     2.05     0.00      339     0.27     0.00     1245      127        0     1372
 1975 085   146      518     2.07     0.00      340     0.27     0.00     1247      128        0     1375
 1975 086   147      576     1.52     0.00      340     0.28     0.00     1249      129        0     1378
 1975 087   148      217     1.49     0.00      341     0.28     0.00     1250      130        0     1379
 1975 088   149       48     1.81     0.00      341     0.28     0.00     1250      130        0     1380
 1975 089   150       14     1.68     0.00      341     0.28     0.00     1250      131        0     1381
 1975 090   151        1     1.57     0.00      341     0.28     0.00     1250      132        0     1382
 1975 091   152        0     1.80     0.00      341     0.28     0.00     1250      133        0     1383
 1975 092   153        1     1.62     0.00      341     0.29     0.00     1250      134        0     1384
 1975 093   154       19     1.63     0.00      341     0.29     0.00     1250      134        0     1384
 1975 094   155       17     1.58     0.00      341     0.29     0.00     1250      135        0     1385
 1975 095   156       20     1.77     0.00      341     0.29     0.00     1250      136        0     1386
 1975 096   157       11     1.51     0.00      341     0.29     0.00     1250      137        0     1387
 1975 097   158        7     1.81     0.00      341     0.29     0.00     1250      137        0     1388
 1975 098   159        3     1.52     0.00      341     0.30     0.00     1250      138        0     1388
 1975 099   160        6     1.55     0.00      341     0.30     0.00     1250      139        0     1389
 1975 100   161        2     1.78     0.00      341     0.30     0.00     1250      140        0     1390
 1975 101   162        7     1.54     0.00      341     0.30     0.00     1250      140        0     1391
 1975 102   163       32     1.77     0.00      341     0.30     0.00     1250      141        0     1392
 1975 103   164      301     1.95     0.00      341     0.30     0.00     1252      142        0     1394
 1975 104   165     1644     1.80     0.00      343     0.31     0.00     1258      143        0     1401
 1975 105   166     2479     1.43     0.00      345     0.31     0.00     1267      144        0     1410
 1975 106   167     3290     1.44     0.00      348     0.31     0.00     1279      144        0     1423
 1975 107   168     3693     1.50     0.00      352     0.31     0.00     1292      145        0     1437
 1975 108   169     3799     1.56     0.00      356     0.31     0.00     1306      146        0     1452
 1975 109   170     8408     1.64     0.00      364     0.31     0.00     1337      147        0     1484
 1975 110   171    11891     2.26     0.00      376     0.32     0.00     1381      148        0     1528
 1975 111   172    11992     3.00     0.00      388     0.32     0.00     1425      149        0     1574
 1975 112   173    12776     3.41     0.00      401     0.32     0.00     1472      151        0     1622
 1975 113   174    13383     3.61     0.00      414     0.33     0.00     1521      152        0     1673
 1975 114   175    12110     3.64     0.00      426     0.33     0.00     1565      154        0     1719
[...]
 1975 029    90      576     1.45     0.00      312     0.18     0.00     1146       83        0     1229
 1975 030    91      433     1.44     0.00      313     0.18     0.00     1147       84        0     1231
 1975 031    92      430     1.48     0.00      313     0.18     0.00     1149       84        0     1233
 1975 032    93     1210     1.46     0.00      314     0.18     0.00     1153       85        0     1238
 1975 033    94     1549     1.72     0.00      316     0.18     0.00     1159       86        0     1245
 1975 034    95     1694     1.83     0.00      318     0.18     0.00     1165       87        0     1252
 1975 035    96     1773     1.96     0.00      319     0.19     0.00     1172       87        0     1259
 1975 036    97     1342     2.01     0.00      321     0.19     0.00     1177       88        0     1265
 1975 037    98      295     2.05     0.00      321     0.19     0.00     1178       89        0     1267
 1975 038    99      110     2.05     0.00      321     0.19     0.00     1178       90        0     1269
 1975 039   100      118     2.05     0.00      321     0.20     0.00     1179       91        0     1270
 1975 040   101       81     2.06     0.00      321     0.20     0.00     1179       92        0     1271
 1975 041   102       64     2.05     0.00      321     0.20     0.00     1179       93        0     1272
 1975 042   103       49     1.73     0.00      321     0.20     0.00     1179       94        0     1273
 1975 043   104       77     1.51     0.00      321     0.20     0.00     1180       95        0     1274
 1975 044   105      168     1.53     0.00      322     0.20     0.00     1180       95        0     1276
 1975 045   106      344     1.61     0.00      322     0.21     0.00     1182       96        0     1278
 1975 046   107      361     1.50     0.00      322     0.21     0.00     1183       97        0     1280
 1975 047   108      336     1.68     0.00      323     0.21     0.00     1184       98        0     1282
 1975 048   109      256     1.67     0.00      323     0.21     0.00     1185       99        0     1284
 1975 049   110      141     1.43     0.00      323     0.21     0.00     1186       99        0     1285
 1975 050   111       84     1.39     0.00      323     0.21     0.00     1186      100        0     1286
 1975 051   112      125     1.63     0.00      323     0.21     0.00     1186      101        0     1287
 1975 052   113      185     1.81     0.00      323     0.22     0.00     1187      101        0     1288
 1975 053   114      187     1.84     0.00      324     0.22     0.00     1188      102        0     1290
 1975 054   115      124     1.85     0.00      324     0.22     0.00     1188      103        0     1291
 1975 055   116      117     1.86     0.00      324     0.22     0.00     1189      104        0     1293
 1975 056   117      122     1.88     0.00      324     0.22     0.00     1189      105        0     1294
 1975 057   118       69     1.90     0.00      324     0.23     0.00     1189      106        0     1295
 1975 058   119      114     1.92     0.00      324     0.23     0.00     1190      107        0     1296
 1975 059   120       99     1.94     0.00      324     0.23     0.00     1190      108        0     1298
 1975 060   121       80     1.96     0.00      324     0.23     0.00     1190      109        0     1299
 1975 061   122      148     1.99     0.00      324     0.23     0.00     1191      109        0     1300
 1975 062   123      709     1.57     0.00      325     0.24     0.00     1193      110        0     1304
 1975 063   124     1652     1.86     0.00      327     0.24     0.00     1200      111        0     1311
 1975 064   125     2099     1.58     0.00      329     0.24     0.00     1207      112        0     1319
 1975 065   126     2195     1.81     0.00      331     0.24     0.00     1215      113        0     1328
 1975 066   127     2123     1.51     0.00      333     0.24     0.00     1223      113        0     1336
 1975 067   128     1975     1.49     0.00      335     0.24     0.00     1230      114        0     1344
 1975 068   129     1359     1.45     0.00      337     0.25     0.00     1235      115        0     1350
 1975 069   130     1110     1.46     0.00      338     0.25     0.00     1239      115        0     1355
 1975 070   131      670     1.70     0.00      338     0.25     0.00     1242      116        0     1358
 1975 071   132      214     1.42     0.00      339     0.25     0.00     1243      117        0     1360
 1975 072   133      114     1.37     0.00      339     0.25     0.00     1243      118        0     1361
 1975 073   134       94     1.35     0.00      339     0.25     0.00     1243      118        0     1362
 1975 074   135       53     1.41     0.00      339     0.25     0.00     1244      119        0     1362
 1975 075   136       43     1.41     0.00      339     0.26     0.00     1244      119        0     1363
 1975 076   137       29     1.72     0.00      339     0.26     0.00     1244      120        0     1364
 1975 077   138        9     1.99     0.00      339     0.26     0.00     1244      121        0     1365
 1975 078   139        0     1.96     0.00      339     0.26     0.00     1244      122        0     1366
 1975 079   140        0     1.99     0.00      339     0.26     0.00     1244      123        0     1367
 1975 080   141        0     1.99     0.00      339     0.26     0.00     1244      124        0     1368
 1975 081   142        0     1.46     0.00      339     0.27     0.00     1244      125        0     1369
 1975 082   143       12     1.58     0.00      339     0.27     0.00     1244      125        0     1369
 1975 083   144       53     1.85     0.00      339     0.27     0.00     1244      126        0     1370
 1975 084   145      217     2.05     0.00      339     0.27     0.00     1245      127        0     1372
 1975 085   146      518     2.07     0.00      340     0.27     0.00     1247      128        0     1375
 1975 086   147      576     1.52     0.00      340     0.28     0.00     1249      129        0     1378
 1975 087   148      217     1.49     0.00      341     0.28     0.00     1250      130        0     1379
 1975 088   149       48     1.81     0.00      341     0.28     0.00     1250      130        0     1380
 1975 089   150       14     1.68     0.00      341     0.28     0.00     1250      131        0     1381
 1975 090   151        1     1.57     0.00      341     0.28     0.00     1250      132        0     1382
 1975 091   152        0     1.80     0.00      341     0.28     0.00     1250      133        0     1383
 1975 092   153        1     1.62     0.00      341     0.29     0.00     1250      134        0     1384
 1975 093   154       19     1.63     0.00      341     0.29     0.00     1250      134        0     1384
 1975 094   155       17     1.58     0.00      341     0.29     0.00     1250      135        0     1385
 1975 095   156       20     1.77     0.00      341     0.29     0.00     1250      136        0     1386
 1975 096   157       11     1.51     0.00      341     0.29     0.00     1250      137        0     1387
 1975 097   158        7     1.81     0.00      341     0.29     0.00     1250      137        0     1388
 1975 098   159        3     1.52     0.00      341     0.30     0.00     1250      138        0     1388
 1975 099   160        6     1.55     0.00      341     0.30     0.00     1250      139        0     1389
 1975 100   161        2     1.78     0.00      341     0.30     0.00     1250      140        0     1390
 1975 101   162        7     1.54     0.00      341     0.30     0.00     1250      140        0     1391
 1975 102   163       32     1.77     0.00      341     0.30     0.00     1250      141        0     1392
 1975 103   164      301     1.95     0.00      341     0.30     0.00     1252      142        0     1394
 1975 104   165     1644     1.80     0.00      343     0.31     0.00     1258      143        0     1401
 1975 105   166     2479     1.43     0.00      345     0.31     0.00     1267      144        0     1410
 1975 106   167     3290     1.44     0.00      348     0.31     0.00     1279      144        0     1423
 1975 107   168     3693     1.50     0.00      352     0.31     0.00     1292      145        0     1437
 1975 108   169     3799     1.56     0.00      356     0.31     0.00     1306      146        0     1452
 1975 109   170     8408     2.21     0.00      364     0.31     0.00     1337      147        0     1484
 1975 110   171    12505     3.74     0.00      377     0.32     0.00     1383      149        0     1532
 1975 111   172    12603     6.39     0.00      389     0.32     0.00     1429      152        0     1581
 1975 112   173    13393     7.99     0.00      403     0.33     0.00     1478      155        0     1634
 1975 113   174    13986     8.89     0.00      417     0.34     0.00     1530      160        0     1689
 1975 114   175    12607     9.18     0.00      429     0.35     0.00     1576      164        0     1740
 1975 115   176    11764     9.14     0.00      441     0.36     0.00     1619      168        0     1787
 1975 116   177    12584     8.74     0.00      454     0.37     0.00     1665      172        0     1838
 1975 117   178    12525     8.36     0.00      466     0.38     0.00     1711      176        0     1887
 1975 118   179    11468     7.68     0.00      478     0.38     0.00     1753      180        0     1933
 1975 119   180    11152     7.14     0.00      489     0.39     0.00     1794      183        0     1977
 1975 120   181     9989     6.42     0.00      499     0.40     0.00     1831      186        0     2017
 1975 121   182     9130     5.58     0.00      508     0.40     0.00     1865      189        0     2053
 1975 122   183     7565     5.01     0.00      516     0.41     0.00     1892      191        0     2083
 1975 123   184    10226     4.11     0.00      526     0.41     0.00     1930      193        0     2123
 1975 124   185     7314     3.72     0.00      533     0.42     0.00     1957      195        0     2151
 1975 125   186     6049     3.40     0.00      539     0.42     0.00     1979      196        0     2175
 1975 126   187     5548     3.11     0.00      545     0.42     0.00     1999      198        0     2197
 1975 127   188     5003     2.83     0.00      550     0.43     0.00     2018      199        0     2217
 1975 128   189     8019     1.83     0.00      558     0.43     0.00     2047      200        0     2247
 1975 129   190    10489     2.13     0.00      568     0.43     0.00     2085      201        0     2286
 1975 130   191    10710     1.95     0.00      579     0.43     0.00     2125      202        0     2327
 1975 131   192    10864     1.80     0.00      590     0.43     0.00     2165      203        0     2367
 1975 132   193    10068     1.67     0.00      600     0.43     0.00     2202      203        0     2405
 1975 133   194    10426     1.44     0.00      610     0.44     0.00     2240      204        0     2444
 1975 134   195     9940     1.40     0.00      620     0.44     0.00     2276      205        0     2481
 1975 135   196     9530     1.33     0.00      630     0.44     0.00     2311      205        0     2517
 1975 136   197     8337     1.26     0.00      638     0.44     0.00     2342      206        0     2548
 1975 137   198     6817     0.85     0.00      645     0.44     0.00     2367      206        0     2573
 1975 138   199     6550     0.78     0.00      651     0.44     0.00     2391      207        0     2598
 1975 139   200     6366     0.90     0.00      658     0.44     0.00     2414      207        0     2622
 1975 140   201     6917     0.99     0.00      665     0.44     0.00     2440      208        0     2647
 1975 141   202     7828     0.96     0.00      673     0.44     0.00     2468      208        0     2677
 1975 142   203     8878     0.95     0.00      681     0.45     0.00     2501      209        0     2710
 1975 143   204     8760     0.93     0.00      690     0.45     0.00     2533      209        0     2742
 1975 144   205     7897     0.92     0.00      698     0.45     0.00     2562      209        0     2772
 1975 145   206     7362     0.87     0.00      706     0.45     0.00     2589      210        0     2799
 1975 146   207     6377     0.86     0.00      712     0.45     0.00     2613      210        0     2823
 1975 147   208     5819     0.85     0.00      718     0.45     0.00     2634      211        0     2845
 1975 148   209     6596     0.85     0.00      724     0.45     0.00     2658      211        0     2869
 1975 149   210     7620     0.85     0.00      732     0.45     0.00     2686      211        0     2898
 1975 150   211     8031     0.82     0.00      740     0.45     0.00     2716      212        0     2927
 1975 151   212     7072     0.80     0.00      747     0.45     0.00     2742      212        0     2954
 1975 152   213     5491     0.78     0.00      753     0.45     0.00     2762      212        0     2974
 1975 153   214     4302     0.75     0.00      757     0.45     0.00     2778      213        0     2990
 1975 154   215     4023     0.66     0.00      761     0.46     0.00     2792      213        0     3005
 1975 155   216     3389     0.65     0.00      764     0.46     0.00     2805      213        0     3018
 1975 156   217     3697     0.64     0.00      768     0.46     0.00     2818      214        0     3032
 1975 157   218     4799     0.63     0.00      773     0.46     0.00     2836      214        0     3050
 1975 158   219     5900     0.62     0.00      779     0.46     0.00     2858      214        0     3072
 1975 159   220     6459     0.63     0.00      785     0.46     0.00     2881      215        0     3096
 1975 160   221     6565     0.63     0.00      792     0.46     0.00     2905      215        0     3120
 1975 161   222     6769     0.61     0.00      798     0.46     0.00     2930      215        0     3145
 1975 162   223     6378     0.59     0.00      805     0.46     0.00     2954      215        0     3169
 1975 163   224     5615     0.57     0.00      810     0.46     0.00     2974      216        0     3190
 1975 164   225     4993     0.55     0.00      815     0.46     0.00     2993      216        0     3209
 1975 165   226     4607     0.53     0.00      820     0.46     0.00     3009      216        0     3226
 1975 166   227     4356     0.52     0.00      824     0.46     0.00     3025      217        0     3242
 1975 167   228     4203     0.49     0.00      829     0.46     0.00     3041      217        0     3258
 1975 168   229     7163     0.41     0.00      836     0.46     0.00     3067      217        0     3284
 1975 169   230     6484     0.41     0.00      842     0.46     0.00     3091      217        0     3308
 1975 170   231     4325     0.43     0.00      847     0.46     0.00     3107      217        0     3324
 1975 171   232     3557     0.43     0.00      850     0.46     0.00     3120      218        0     3337
 1975 172   233     3224     0.42     0.00      853     0.47     0.00     3132      218        0     3349
 1975 173   234     3280     0.41     0.00      857     0.47     0.00     3144      218        0     3362
 1975 174   235     3029     0.40     0.00      860     0.47     0.00     3155      218        0     3373
 1975 175   236     8120     0.32     0.00      868     0.47     0.00     3185      218        0     3403
 1975 176   237     5530     0.34     0.00      873     0.47     0.00     3205      218        0     3423
 1975 177   238     3188     0.37     0.00      876     0.47     0.00     3217      219        0     3435
 1975 178   239     2812     0.36     0.00      879     0.47     0.00     3227      219        0     3446
 1975 179   240     2480     0.34     0.00      882     0.47     0.00     3236      219        0     3455
 1975 180   241     2219     0.33     0.00      884     0.47     0.00     3244      219        0     3463
 1975 181   242     1841     0.32     0.00      886     0.47     0.00     3251      219        0     3470
 1975 182   243     1671     0.31     0.00      887     0.47     0.00     3257      219        0     3476
 1975 183   244     1492     0.29     0.00      889     0.47     0.00     3263      220        0     3482
 1975 184   245     1411     0.28     0.00      890     0.47     0.00     3268      220        0     3487
 1975 185   246     1462     0.27     0.00      892     0.47     0.00     3273      220        0     3493
 1975 186   247     1543     0.26     0.00      893     0.47     0.00     3279      220        0     3499
 1975 187   248     1509     0.25     0.00      895     0.47     0.00     3284      220        0     3504
 1975 188   249     1519     0.24     0.00      896     0.47     0.00     3290      220        0     3510
 1975 189   250     2701     0.22     0.00      899     0.47     0.00     3300      220        0     3520
 1975 190   251     2581     0.22     0.00      902     0.47     0.00     3309      220        0     3530
 1975 191   252     2431     0.22     0.00      904     0.47     0.00     3318      220        0     3539
 1975 192   253     2457     0.21     0.00      907     0.47     0.00     3327      221        0     3548
 1975 193   254     2283     0.21     0.00      909     0.47     0.00     3336      221        0     3556
 1975 194   255     4021     0.19     0.00      913     0.47     0.00     3350      221        0     3571
 1975 195   256     2851     0.20     0.00      916     0.47     0.00     3361      221        0     3582
 1975 196   257     3010     0.20     0.00      919     0.47     0.00     3372      221        0     3593
 1975 197   258     3524     0.19     0.00      922     0.47     0.00     3385      221        0     3606
 1975 198   259     2913     0.19     0.00      925     0.47     0.00     3395      221        0     3617
 1975 199   260     7786     0.17     0.00      933     0.47     0.00     3424      221        0     3645
 1975 200   261     5436     0.18     0.00      938     0.47     0.00     3444      221        0     3665
 1975 201   262     3965     0.19     0.00      942     0.47     0.00     3459      221        0     3680
 1975 202   263     2916     0.19     0.00      945     0.47     0.00     3469      221        0     3691
 1975 203   264     2634     0.19     0.00      948     0.47     0.00     3479      222        0     3700
 1975 204   265     2446     0.19     0.00      950     0.47     0.00     3488      222        0     3709
 1975 205   266     2519     0.18     0.00      953     0.47     0.00     3497      222        0     3719
 1975 206   267     3025     0.17     0.00      956     0.47     0.00     3508      222        0     3730
 1975 207   268     2180     0.18     0.00      958     0.47     0.00     3516      222        0     3738
 1975 208   269     2053     0.17     0.00      960     0.47     0.00     3524      222        0     3746
 1975 209   270     1936     0.17     0.00      962     0.47     0.00     3531      222        0     3753
 1975 210   271     1852     0.17     0.00      964     0.47     0.00     3538      222        0     3760
 1975 211   272     1864     0.16     0.00      966     0.47     0.00     3545      222        0     3767
 1975 212   273     1848     0.16     0.00      968     0.47     0.00     3551      222        0     3774
 1975 213   274     1712     0.16     0.00      969     0.47     0.00     3558      222        0     3780
 1975 214   275     1572     0.15     0.00      971     0.48     0.00     3563      222        0     3786
