*INFO DETAIL FILE

******************************************************************************

*DSSAT Cropping System Model Ver. 4.8.2.010 -develop  JUL 08, 2024 16:11:18

*RUN   1        : 0 KG N/HA                          RORO7401    1

 EXPERIMENT     : RORO7401 WH N RESPONSE,ROTHAMSTED  8FE(N)  (DSSAT3)
 DATA PATH      : C:\DSSAT48\Wheat\
 TREATMENT  1   : 0 KG N/HA
  

 MAKEFW  YEAR DOY =    0   0
 Y4KDOY - Weather file                                                         
 Not able to find 7-digits first weather date                                  
 Set simulation to 5-digits first weather date                                 

 CSM     YEAR DOY = 1974 305
 RNMODE = B                                                                    
 PATHEX = C:\DSSAT48\Wheat\                                                    
 FILEX  = RORO7401.WHX                                                         
 FILEB  = DSSBatch.v48                                                         
 FILEIO = DSSAT48.INP                                                          
 MODEL  = CSCER048                                                             
 TRTNUM =     1                                                                

 SOILDYN  YEAR DOY = 1974 305
 The soil file has missing or invalid data.                                    
 Default values have been used for these variables:                            
   CEC, STONES, ADCOEF, SAEA                                                   
 These defaults may or may not be important to your results.                   

 RETC  YEAR DOY = 1974 305
 Soil RETC parameters:                                                         
  LYR DS  SWCN   WCR    Hb Lambd  Alpha     m     n Texture                    
   1   5-99.00 0.042  18.5 0.328  0.003 0.287 1.402 ClayLoam                   
   2  15-99.00 0.049  13.7 0.297  0.004 0.261 1.353 ClayLoam                   
   3  25-99.00 0.057  10.1 0.273  0.005 0.242 1.320 ClayLoam                   
   4  35-99.00 0.084  14.4 0.195  0.004 0.189 1.233 ClayLoam                   
   5  45-99.00 0.084  14.4 0.195  0.004 0.189 1.233 ClayLoam                   
   6  55-99.00 0.084  14.4 0.195  0.004 0.189 1.233 ClayLoam                   
   7  65-99.00 0.084  14.4 0.195  0.004 0.189 1.233 ClayLoam                   
   8  95-99.00 0.084  14.4 0.195  0.004 0.189 1.233 ClayLoam                   
   9 125-99.00 0.084  14.4 0.195  0.004 0.189 1.233 ClayLoam                   
  10 155-99.00 0.084  14.4 0.195  0.004 0.189 1.233 ClayLoam                   

 SETPM     YEAR DOY = 1974 305
 Simulating flat surface with no plastic mulch.                                                                               

 SOILDYN  YEAR DOY = 1974 305
 Soil ID: IBWH980020                                                           
   ROTHAMSTED                                                                  
 ROTHAMSTED                                                                    
   SALB SWCON    CN  DMOD  SLPF SMPX                                           
   0.14  0.50  60.0  1.00  1.00 IB001                                          
 Soil layer distribution method: 2                                             
      DS DLAYR    LL   DUL   SAT  Root    BD    OC  CLAY  SILT  SAND           
 LYR  cm    cm  frac  frac  frac  Grow g/cm3     %     %     %     %    pH     
   1   5     5 0.110 0.280 0.330 1.000  1.10  1.16  30.0  30.0  40.0   7.0     
   2  15    10 0.130 0.300 0.375 0.950  1.15  1.08  30.0  30.0  40.0   7.0     
   3  25    10 0.150 0.320 0.420 0.900  1.20  1.00  30.0  30.0  40.0   7.0     
   4  35    10 0.220 0.370 0.420 0.700  1.25  0.68  30.0  30.0  40.0   7.0     
   5  45    10 0.220 0.370 0.420 0.700  1.25  0.68  30.0  30.0  40.0   7.0     
   6  55    10 0.220 0.370 0.420 0.500  1.25  0.26  30.0  30.0  40.0   7.0     
   7  65    10 0.220 0.370 0.420 0.500  1.25  0.26  30.0  30.0  40.0   7.0     
   8  95    30 0.220 0.370 0.420 0.200  1.25  0.25  30.0  30.0  40.0   7.0     
   9 125    30 0.220 0.370 0.420 0.100  1.25  0.20  30.0  30.0  40.0   7.0     
  10 155    30 0.220 0.370 0.420 0.050  1.25  0.20  30.0  30.0  40.0   7.0     

 SOILDYN  YEAR DOY = 1974 305
 Additional soil properties                                                    
                Convert                                                        
    Cation Adsrp  ppm /  SLCF                                                  
   L  Exch  Coef  kg/ha     %                                                  
   1  15.5   0.0   1.82   0.0                                                  
   2  15.5   0.0   0.87   0.0                                                  
   3  15.5   0.0   0.83   0.0                                                  
   4  15.5   0.0   0.80   0.0                                                  
   5  15.5   0.0   0.80   0.0                                                  
   6  15.5   0.0   0.80   0.0                                                  
   7  15.5   0.0   0.80   0.0                                                  
   8  15.5   0.0   0.27   0.0                                                  
   9  15.5   0.0   0.27   0.0                                                  
  10  15.5   0.0   0.27   0.0                                                  

 IPWTH   YEAR DOY = 1974 305
 C:\DSSAT48\Weather\RORO7401.WTH                                               
 Found daily weather data headers for:                                         
   SRAD           Col   7 -  11                                                
   TMAX           Col  13 -  17                                                
   TMIN           Col  19 -  23                                                
   RAIN           Col  25 -  29                                                

 CO2VAL  YEAR DOY = 1974 305
  792 CO2 data points read from file.                                          
 C:\DSSAT48\StandardData\CO2048.WDA                                            

 ENDRUN  YEAR DOY = 1975 214
 Normal end of run        1                                                    

******************************************************************************

*DSSAT Cropping System Model Ver. 4.8.2.010 -develop  JUL 08, 2024 16:11:18

*RUN   2        : 30 KG N/HA                CSCER048 RORO7401    2
 MODEL          : CSCER048 - Wheat
 EXPERIMENT     : RORO7401 WH N RESPONSE,ROTHAMSTED  8FE(N)  (DSSAT3)
 DATA PATH      : C:\DSSAT48\Wheat\
 TREATMENT  2   : 30 KG N/HA                CSCER048
  

 CSM     YEAR DOY = 1974 305
 RNMODE = B                                                                    
 PATHEX = C:\DSSAT48\Wheat\                                                    
 FILEX  = RORO7401.WHX                                                         
 FILEB  = DSSBatch.v48                                                         
 FILEIO = DSSAT48.INP                                                          
 MODEL  = CSCER048                                                             
 TRTNUM =     2                                                                

 SOILDYN  YEAR DOY = 1974 305
 The soil file has missing or invalid data.                                    
 Default values have been used for these variables:                            
   CEC, STONES, ADCOEF, SAEA                                                   
 These defaults may or may not be important to your results.                   

 RETC  YEAR DOY = 1974 305
 Soil RETC parameters:                                                         
  LYR DS  SWCN   WCR    Hb Lambd  Alpha     m     n Texture                    
   1   5-99.00 0.042  18.5 0.328  0.003 0.287 1.402 ClayLoam                   
   2  15-99.00 0.049  13.7 0.297  0.004 0.261 1.353 ClayLoam                   
   3  25-99.00 0.057  10.1 0.273  0.005 0.242 1.320 ClayLoam                   
   4  35-99.00 0.084  14.4 0.195  0.004 0.189 1.233 ClayLoam                   
   5  45-99.00 0.084  14.4 0.195  0.004 0.189 1.233 ClayLoam                   
   6  55-99.00 0.084  14.4 0.195  0.004 0.189 1.233 ClayLoam                   
   7  65-99.00 0.084  14.4 0.195  0.004 0.189 1.233 ClayLoam                   
   8  95-99.00 0.084  14.4 0.195  0.004 0.189 1.233 ClayLoam                   
   9 125-99.00 0.084  14.4 0.195  0.004 0.189 1.233 ClayLoam                   
  10 155-99.00 0.084  14.4 0.195  0.004 0.189 1.233 ClayLoam                   

 SETPM     YEAR DOY = 1974 305
 Simulating flat surface with no plastic mulch.                                                                               

 SOILDYN  YEAR DOY = 1974 305
 Soil ID: IBWH980020                                                           
   ROTHAMSTED                                                                  
 ROTHAMSTED                                                                    
   SALB SWCON    CN  DMOD  SLPF SMPX                                           
   0.14  0.50  60.0  1.00  1.00 IB001                                          
 Soil layer distribution method: 2                                             
      DS DLAYR    LL   DUL   SAT  Root    BD    OC  CLAY  SILT  SAND           
 LYR  cm    cm  frac  frac  frac  Grow g/cm3     %     %     %     %    pH     
   1   5     5 0.110 0.280 0.330 1.000  1.10  1.16  30.0  30.0  40.0   7.0     
   2  15    10 0.130 0.300 0.375 0.950  1.15  1.08  30.0  30.0  40.0   7.0     
   3  25    10 0.150 0.320 0.420 0.900  1.20  1.00  30.0  30.0  40.0   7.0     
   4  35    10 0.220 0.370 0.420 0.700  1.25  0.68  30.0  30.0  40.0   7.0     
   5  45    10 0.220 0.370 0.420 0.700  1.25  0.68  30.0  30.0  40.0   7.0     
   6  55    10 0.220 0.370 0.420 0.500  1.25  0.26  30.0  30.0  40.0   7.0     
   7  65    10 0.220 0.370 0.420 0.500  1.25  0.26  30.0  30.0  40.0   7.0     
   8  95    30 0.220 0.370 0.420 0.200  1.25  0.25  30.0  30.0  40.0   7.0     
   9 125    30 0.220 0.370 0.420 0.100  1.25  0.20  30.0  30.0  40.0   7.0     
  10 155    30 0.220 0.370 0.420 0.050  1.25  0.20  30.0  30.0  40.0   7.0     

 SOILDYN  YEAR DOY = 1974 305
 Additional soil properties                                                    
                Convert                                                        
    Cation Adsrp  ppm /  SLCF                                                  
   L  Exch  Coef  kg/ha     %                                                  
   1  15.5   0.0   1.82   0.0                                                  
   2  15.5   0.0   0.87   0.0                                                  
   3  15.5   0.0   0.83   0.0                                                  
   4  15.5   0.0   0.80   0.0                                                  
   5  15.5   0.0   0.80   0.0                                                  
   6  15.5   0.0   0.80   0.0                                                  
   7  15.5   0.0   0.80   0.0                                                  
   8  15.5   0.0   0.27   0.0                                                  
   9  15.5   0.0   0.27   0.0                                                  
  10  15.5   0.0   0.27   0.0                                                  

 IPWTH   YEAR DOY = 1974 305
 C:\DSSAT48\Weather\RORO7401.WTH                                               
 Found daily weather data headers for:                                         
   SRAD           Col   7 -  11                                                
   TMAX           Col  13 -  17                                                
   TMIN           Col  19 -  23                                                
   RAIN           Col  25 -  29                                                

 ENDRUN  YEAR DOY = 1975 214
 Normal end of run        2                                                    

******************************************************************************

*DSSAT Cropping System Model Ver. 4.8.2.010 -develop  JUL 08, 2024 16:11:18

*RUN   3        : 60 KG N/HA                CSCER048 RORO7401    3
 MODEL          : CSCER048 - Wheat
 EXPERIMENT     : RORO7401 WH N RESPONSE,ROTHAMSTED  8FE(N)  (DSSAT3)
 DATA PATH      : C:\DSSAT48\Wheat\
 TREATMENT  3   : 60 KG N/HA                CSCER048
  

 CSM     YEAR DOY = 1974 305
 RNMODE = B                                                                    
 PATHEX = C:\DSSAT48\Wheat\                                                    
 FILEX  = RORO7401.WHX                                                         
 FILEB  = DSSBatch.v48                                                         
 FILEIO = DSSAT48.INP                                                          
 MODEL  = CSCER048                                                             
 TRTNUM =     3                                                                

 SOILDYN  YEAR DOY = 1974 305
 The soil file has missing or invalid data.                                    
 Default values have been used for these variables:                            
   CEC, STONES, ADCOEF, SAEA                                                   
 These defaults may or may not be important to your results.                   

 RETC  YEAR DOY = 1974 305
 Soil RETC parameters:                                                         
  LYR DS  SWCN   WCR    Hb Lambd  Alpha     m     n Texture                    
   1   5-99.00 0.042  18.5 0.328  0.003 0.287 1.402 ClayLoam                   
   2  15-99.00 0.049  13.7 0.297  0.004 0.261 1.353 ClayLoam                   
   3  25-99.00 0.057  10.1 0.273  0.005 0.242 1.320 ClayLoam                   
   4  35-99.00 0.084  14.4 0.195  0.004 0.189 1.233 ClayLoam                   
   5  45-99.00 0.084  14.4 0.195  0.004 0.189 1.233 ClayLoam                   
   6  55-99.00 0.084  14.4 0.195  0.004 0.189 1.233 ClayLoam                   
   7  65-99.00 0.084  14.4 0.195  0.004 0.189 1.233 ClayLoam                   
   8  95-99.00 0.084  14.4 0.195  0.004 0.189 1.233 ClayLoam                   
   9 125-99.00 0.084  14.4 0.195  0.004 0.189 1.233 ClayLoam                   
  10 155-99.00 0.084  14.4 0.195  0.004 0.189 1.233 ClayLoam                   

 SETPM     YEAR DOY = 1974 305
 Simulating flat surface with no plastic mulch.                                                                               

 SOILDYN  YEAR DOY = 1974 305
 Soil ID: IBWH980020                                                           
   ROTHAMSTED                                                                  
 ROTHAMSTED                                                                    
   SALB SWCON    CN  DMOD  SLPF SMPX                                           
   0.14  0.50  60.0  1.00  1.00 IB001                                          
 Soil layer distribution method: 2                                             
      DS DLAYR    LL   DUL   SAT  Root    BD    OC  CLAY  SILT  SAND           
 LYR  cm    cm  frac  frac  frac  Grow g/cm3     %     %     %     %    pH     
   1   5     5 0.110 0.280 0.330 1.000  1.10  1.16  30.0  30.0  40.0   7.0     
   2  15    10 0.130 0.300 0.375 0.950  1.15  1.08  30.0  30.0  40.0   7.0     
   3  25    10 0.150 0.320 0.420 0.900  1.20  1.00  30.0  30.0  40.0   7.0     
   4  35    10 0.220 0.370 0.420 0.700  1.25  0.68  30.0  30.0  40.0   7.0     
   5  45    10 0.220 0.370 0.420 0.700  1.25  0.68  30.0  30.0  40.0   7.0     
   6  55    10 0.220 0.370 0.420 0.500  1.25  0.26  30.0  30.0  40.0   7.0     
   7  65    10 0.220 0.370 0.420 0.500  1.25  0.26  30.0  30.0  40.0   7.0     
   8  95    30 0.220 0.370 0.420 0.200  1.25  0.25  30.0  30.0  40.0   7.0     
   9 125    30 0.220 0.370 0.420 0.100  1.25  0.20  30.0  30.0  40.0   7.0     
  10 155    30 0.220 0.370 0.420 0.050  1.25  0.20  30.0  30.0  40.0   7.0     

 SOILDYN  YEAR DOY = 1974 305
 Additional soil properties                                                    
                Convert                                                        
    Cation Adsrp  ppm /  SLCF                                                  
   L  Exch  Coef  kg/ha     %                                                  
   1  15.5   0.0   1.82   0.0                                                  
   2  15.5   0.0   0.87   0.0                                                  
   3  15.5   0.0   0.83   0.0                                                  
   4  15.5   0.0   0.80   0.0                                                  
   5  15.5   0.0   0.80   0.0                                                  
   6  15.5   0.0   0.80   0.0                                                  
   7  15.5   0.0   0.80   0.0                                                  
   8  15.5   0.0   0.27   0.0                                                  
   9  15.5   0.0   0.27   0.0                                                  
  10  15.5   0.0   0.27   0.0                                                  

 IPWTH   YEAR DOY = 1974 305
 C:\DSSAT48\Weather\RORO7401.WTH                                               
 Found daily weather data headers for:                                         
   SRAD           Col   7 -  11                                                
   TMAX           Col  13 -  17                                                
   TMIN           Col  19 -  23                                                
   RAIN           Col  25 -  29                                                

 ENDRUN  YEAR DOY = 1975 214
 Normal end of run        3                                                    

******************************************************************************

*DSSAT Cropping System Model Ver. 4.8.2.010 -develop  JUL 08, 2024 16:11:18

*RUN   4        : 90 KG N/HA                CSCER048 RORO7401    4
 MODEL          : CSCER048 - Wheat
 EXPERIMENT     : RORO7401 WH N RESPONSE,ROTHAMSTED  8FE(N)  (DSSAT3)
 DATA PATH      : C:\DSSAT48\Wheat\
 TREATMENT  4   : 90 KG N/HA                CSCER048
  

 CSM     YEAR DOY = 1974 305
 RNMODE = B                                                                    
 PATHEX = C:\DSSAT48\Wheat\                                                    
 FILEX  = RORO7401.WHX                                                         
 FILEB  = DSSBatch.v48                                                         
 FILEIO = DSSAT48.INP                                                          
 MODEL  = CSCER048                                                             
 TRTNUM =     4                                                                

 SOILDYN  YEAR DOY = 1974 305
 The soil file has missing or invalid data.                                    
 Default values have been used for these variables:                            
   CEC, STONES, ADCOEF, SAEA                                                   
 These defaults may or may not be important to your results.                   

 RETC  YEAR DOY = 1974 305
 Soil RETC parameters:                                                         
  LYR DS  SWCN   WCR    Hb Lambd  Alpha     m     n Texture                    
   1   5-99.00 0.042  18.5 0.328  0.003 0.287 1.402 ClayLoam                   
   2  15-99.00 0.049  13.7 0.297  0.004 0.261 1.353 ClayLoam                   
   3  25-99.00 0.057  10.1 0.273  0.005 0.242 1.320 ClayLoam                   
   4  35-99.00 0.084  14.4 0.195  0.004 0.189 1.233 ClayLoam                   
   5  45-99.00 0.084  14.4 0.195  0.004 0.189 1.233 ClayLoam                   
   6  55-99.00 0.084  14.4 0.195  0.004 0.189 1.233 ClayLoam                   
   7  65-99.00 0.084  14.4 0.195  0.004 0.189 1.233 ClayLoam                   
   8  95-99.00 0.084  14.4 0.195  0.004 0.189 1.233 ClayLoam                   
   9 125-99.00 0.084  14.4 0.195  0.004 0.189 1.233 ClayLoam                   
  10 155-99.00 0.084  14.4 0.195  0.004 0.189 1.233 ClayLoam                   

 SETPM     YEAR DOY = 1974 305
 Simulating flat surface with no plastic mulch.                                                                               

 SOILDYN  YEAR DOY = 1974 305
 Soil ID: IBWH980020                                                           
   ROTHAMSTED                                                                  
 ROTHAMSTED                                                                    
   SALB SWCON    CN  DMOD  SLPF SMPX                                           
   0.14  0.50  60.0  1.00  1.00 IB001                                          
 Soil layer distribution method: 2                                             
      DS DLAYR    LL   DUL   SAT  Root    BD    OC  CLAY  SILT  SAND           
 LYR  cm    cm  frac  frac  frac  Grow g/cm3     %     %     %     %    pH     
   1   5     5 0.110 0.280 0.330 1.000  1.10  1.16  30.0  30.0  40.0   7.0     
   2  15    10 0.130 0.300 0.375 0.950  1.15  1.08  30.0  30.0  40.0   7.0     
   3  25    10 0.150 0.320 0.420 0.900  1.20  1.00  30.0  30.0  40.0   7.0     
   4  35    10 0.220 0.370 0.420 0.700  1.25  0.68  30.0  30.0  40.0   7.0     
   5  45    10 0.220 0.370 0.420 0.700  1.25  0.68  30.0  30.0  40.0   7.0     
   6  55    10 0.220 0.370 0.420 0.500  1.25  0.26  30.0  30.0  40.0   7.0     
   7  65    10 0.220 0.370 0.420 0.500  1.25  0.26  30.0  30.0  40.0   7.0     
   8  95    30 0.220 0.370 0.420 0.200  1.25  0.25  30.0  30.0  40.0   7.0     
   9 125    30 0.220 0.370 0.420 0.100  1.25  0.20  30.0  30.0  40.0   7.0     
  10 155    30 0.220 0.370 0.420 0.050  1.25  0.20  30.0  30.0  40.0   7.0     

 SOILDYN  YEAR DOY = 1974 305
 Additional soil properties                                                    
                Convert                                                        
    Cation Adsrp  ppm /  SLCF                                                  
   L  Exch  Coef  kg/ha     %                                                  
   1  15.5   0.0   1.82   0.0                                                  
   2  15.5   0.0   0.87   0.0                                                  
   3  15.5   0.0   0.83   0.0                                                  
   4  15.5   0.0   0.80   0.0                                                  
   5  15.5   0.0   0.80   0.0                                                  
   6  15.5   0.0   0.80   0.0                                                  
   7  15.5   0.0   0.80   0.0                                                  
   8  15.5   0.0   0.27   0.0                                                  
   9  15.5   0.0   0.27   0.0                                                  
  10  15.5   0.0   0.27   0.0                                                  

 IPWTH   YEAR DOY = 1974 305
 C:\DSSAT48\Weather\RORO7401.WTH                                               
 Found daily weather data headers for:                                         
   SRAD           Col   7 -  11                                                
   TMAX           Col  13 -  17                                                
   TMIN           Col  19 -  23                                                
   RAIN           Col  25 -  29                                                

 ENDRUN  YEAR DOY = 1975 214
 Normal end of run        4                                                    

******************************************************************************

*DSSAT Cropping System Model Ver. 4.8.2.010 -develop  JUL 08, 2024 16:11:18

*RUN   5        : 120 KG N/HA               CSCER048 RORO7401    5
 MODEL          : CSCER048 - Wheat
 EXPERIMENT     : RORO7401 WH N RESPONSE,ROTHAMSTED  8FE(N)  (DSSAT3)
 DATA PATH      : C:\DSSAT48\Wheat\
 TREATMENT  5   : 120 KG N/HA               CSCER048
  

 CSM     YEAR DOY = 1974 305
 RNMODE = B                                                                    
 PATHEX = C:\DSSAT48\Wheat\                                                    
 FILEX  = RORO7401.WHX                                                         
 FILEB  = DSSBatch.v48                                                         
 FILEIO = DSSAT48.INP                                                          
 MODEL  = CSCER048                                                             
 TRTNUM =     5                                                                

 SOILDYN  YEAR DOY = 1974 305
 The soil file has missing or invalid data.                                    
 Default values have been used for these variables:                            
   CEC, STONES, ADCOEF, SAEA                                                   
 These defaults may or may not be important to your results.                   

 RETC  YEAR DOY = 1974 305
 Soil RETC parameters:                                                         
  LYR DS  SWCN   WCR    Hb Lambd  Alpha     m     n Texture                    
   1   5-99.00 0.042  18.5 0.328  0.003 0.287 1.402 ClayLoam                   
   2  15-99.00 0.049  13.7 0.297  0.004 0.261 1.353 ClayLoam                   
   3  25-99.00 0.057  10.1 0.273  0.005 0.242 1.320 ClayLoam                   
   4  35-99.00 0.084  14.4 0.195  0.004 0.189 1.233 ClayLoam                   
   5  45-99.00 0.084  14.4 0.195  0.004 0.189 1.233 ClayLoam                   
   6  55-99.00 0.084  14.4 0.195  0.004 0.189 1.233 ClayLoam                   
   7  65-99.00 0.084  14.4 0.195  0.004 0.189 1.233 ClayLoam                   
   8  95-99.00 0.084  14.4 0.195  0.004 0.189 1.233 ClayLoam                   
   9 125-99.00 0.084  14.4 0.195  0.004 0.189 1.233 ClayLoam                   
  10 155-99.00 0.084  14.4 0.195  0.004 0.189 1.233 ClayLoam                   

 SETPM     YEAR DOY = 1974 305
 Simulating flat surface with no plastic mulch.                                                                               

 SOILDYN  YEAR DOY = 1974 305
 Soil ID: IBWH980020                                                           
   ROTHAMSTED                                                                  
 ROTHAMSTED                                                                    
   SALB SWCON    CN  DMOD  SLPF SMPX                                           
   0.14  0.50  60.0  1.00  1.00 IB001                                          
 Soil layer distribution method: 2                                             
      DS DLAYR    LL   DUL   SAT  Root    BD    OC  CLAY  SILT  SAND           
 LYR  cm    cm  frac  frac  frac  Grow g/cm3     %     %     %     %    pH     
   1   5     5 0.110 0.280 0.330 1.000  1.10  1.16  30.0  30.0  40.0   7.0     
   2  15    10 0.130 0.300 0.375 0.950  1.15  1.08  30.0  30.0  40.0   7.0     
   3  25    10 0.150 0.320 0.420 0.900  1.20  1.00  30.0  30.0  40.0   7.0     
   4  35    10 0.220 0.370 0.420 0.700  1.25  0.68  30.0  30.0  40.0   7.0     
   5  45    10 0.220 0.370 0.420 0.700  1.25  0.68  30.0  30.0  40.0   7.0     
   6  55    10 0.220 0.370 0.420 0.500  1.25  0.26  30.0  30.0  40.0   7.0     
   7  65    10 0.220 0.370 0.420 0.500  1.25  0.26  30.0  30.0  40.0   7.0     
   8  95    30 0.220 0.370 0.420 0.200  1.25  0.25  30.0  30.0  40.0   7.0     
   9 125    30 0.220 0.370 0.420 0.100  1.25  0.20  30.0  30.0  40.0   7.0     
  10 155    30 0.220 0.370 0.420 0.050  1.25  0.20  30.0  30.0  40.0   7.0     

 SOILDYN  YEAR DOY = 1974 305
 Additional soil properties                                                    
                Convert                                                        
    Cation Adsrp  ppm /  SLCF                                                  
   L  Exch  Coef  kg/ha     %                                                  
   1  15.5   0.0   1.82   0.0                                                  
   2  15.5   0.0   0.87   0.0                                                  
   3  15.5   0.0   0.83   0.0                                                  
   4  15.5   0.0   0.80   0.0                                                  
   5  15.5   0.0   0.80   0.0                                                  
   6  15.5   0.0   0.80   0.0                                                  
   7  15.5   0.0   0.80   0.0                                                  
   8  15.5   0.0   0.27   0.0                                                  
   9  15.5   0.0   0.27   0.0                                                  
  10  15.5   0.0   0.27   0.0                                                  

 IPWTH   YEAR DOY = 1974 305
 C:\DSSAT48\Weather\RORO7401.WTH                                               
 Found daily weather data headers for:                                         
   SRAD           Col   7 -  11                                                
   TMAX           Col  13 -  17                                                
   TMIN           Col  19 -  23                                                
   RAIN           Col  25 -  29                                                

 ENDRUN  YEAR DOY = 1975 214
 Normal end of run        5                                                    

******************************************************************************

*DSSAT Cropping System Model Ver. 4.8.2.010 -develop  JUL 08, 2024 16:11:18

*RUN   6        : 150 KG N/HA               CSCER048 RORO7401    6
 MODEL          : CSCER048 - Wheat
 EXPERIMENT     : RORO7401 WH N RESPONSE,ROTHAMSTED  8FE(N)  (DSSAT3)
 DATA PATH      : C:\DSSAT48\Wheat\
 TREATMENT  6   : 150 KG N/HA               CSCER048
  

 CSM     YEAR DOY = 1974 305
 RNMODE = B                                                                    
 PATHEX = C:\DSSAT48\Wheat\                                                    
 FILEX  = RORO7401.WHX                                                         
 FILEB  = DSSBatch.v48                                                         
 FILEIO = DSSAT48.INP                                                          
 MODEL  = CSCER048                                                             
 TRTNUM =     6                                                                

 SOILDYN  YEAR DOY = 1974 305
 The soil file has missing or invalid data.                                    
 Default values have been used for these variables:                            
   CEC, STONES, ADCOEF, SAEA                                                   
 These defaults may or may not be important to your results.                   

 RETC  YEAR DOY = 1974 305
 Soil RETC parameters:                                                         
  LYR DS  SWCN   WCR    Hb Lambd  Alpha     m     n Texture                    
   1   5-99.00 0.042  18.5 0.328  0.003 0.287 1.402 ClayLoam                   
   2  15-99.00 0.049  13.7 0.297  0.004 0.261 1.353 ClayLoam                   
   3  25-99.00 0.057  10.1 0.273  0.005 0.242 1.320 ClayLoam                   
   4  35-99.00 0.084  14.4 0.195  0.004 0.189 1.233 ClayLoam                   
   5  45-99.00 0.084  14.4 0.195  0.004 0.189 1.233 ClayLoam                   
   6  55-99.00 0.084  14.4 0.195  0.004 0.189 1.233 ClayLoam                   
   7  65-99.00 0.084  14.4 0.195  0.004 0.189 1.233 ClayLoam                   
   8  95-99.00 0.084  14.4 0.195  0.004 0.189 1.233 ClayLoam                   
   9 125-99.00 0.084  14.4 0.195  0.004 0.189 1.233 ClayLoam                   
  10 155-99.00 0.084  14.4 0.195  0.004 0.189 1.233 ClayLoam                   

 SETPM     YEAR DOY = 1974 305
 Simulating flat surface with no plastic mulch.                                                                               

 SOILDYN  YEAR DOY = 1974 305
 Soil ID: IBWH980020                                                           
   ROTHAMSTED                                                                  
 ROTHAMSTED                                                                    
   SALB SWCON    CN  DMOD  SLPF SMPX                                           
   0.14  0.50  60.0  1.00  1.00 IB001                                          
 Soil layer distribution method: 2                                             
      DS DLAYR    LL   DUL   SAT  Root    BD    OC  CLAY  SILT  SAND           
 LYR  cm    cm  frac  frac  frac  Grow g/cm3     %     %     %     %    pH     
   1   5     5 0.110 0.280 0.330 1.000  1.10  1.16  30.0  30.0  40.0   7.0     
   2  15    10 0.130 0.300 0.375 0.950  1.15  1.08  30.0  30.0  40.0   7.0     
   3  25    10 0.150 0.320 0.420 0.900  1.20  1.00  30.0  30.0  40.0   7.0     
   4  35    10 0.220 0.370 0.420 0.700  1.25  0.68  30.0  30.0  40.0   7.0     
   5  45    10 0.220 0.370 0.420 0.700  1.25  0.68  30.0  30.0  40.0   7.0     
   6  55    10 0.220 0.370 0.420 0.500  1.25  0.26  30.0  30.0  40.0   7.0     
   7  65    10 0.220 0.370 0.420 0.500  1.25  0.26  30.0  30.0  40.0   7.0     
   8  95    30 0.220 0.370 0.420 0.200  1.25  0.25  30.0  30.0  40.0   7.0     
   9 125    30 0.220 0.370 0.420 0.100  1.25  0.20  30.0  30.0  40.0   7.0     
  10 155    30 0.220 0.370 0.420 0.050  1.25  0.20  30.0  30.0  40.0   7.0     

 SOILDYN  YEAR DOY = 1974 305
 Additional soil properties                                                    
                Convert                                                        
    Cation Adsrp  ppm /  SLCF                                                  
   L  Exch  Coef  kg/ha     %                                                  
   1  15.5   0.0   1.82   0.0                                                  
   2  15.5   0.0   0.87   0.0                                                  
   3  15.5   0.0   0.83   0.0                                                  
   4  15.5   0.0   0.80   0.0                                                  
   5  15.5   0.0   0.80   0.0                                                  
   6  15.5   0.0   0.80   0.0                                                  
   7  15.5   0.0   0.80   0.0                                                  
   8  15.5   0.0   0.27   0.0                                                  
   9  15.5   0.0   0.27   0.0                                                  
  10  15.5   0.0   0.27   0.0                                                  

 IPWTH   YEAR DOY = 1974 305
 C:\DSSAT48\Weather\RORO7401.WTH                                               
 Found daily weather data headers for:                                         
   SRAD           Col   7 -  11                                                
   TMAX           Col  13 -  17                                                
   TMIN           Col  19 -  23                                                
   RAIN           Col  25 -  29                                                

 ENDRUN  YEAR DOY = 1975 214
 Normal end of run        6                                                    

******************************************************************************

*DSSAT Cropping System Model Ver. 4.8.2.010 -develop  JUL 08, 2024 16:11:18

*RUN   7        : 180 KG N/HA               CSCER048 RORO7401    7
 MODEL          : CSCER048 - Wheat
 EXPERIMENT     : RORO7401 WH N RESPONSE,ROTHAMSTED  8FE(N)  (DSSAT3)
 DATA PATH      : C:\DSSAT48\Wheat\
 TREATMENT  7   : 180 KG N/HA               CSCER048
  

 CSM     YEAR DOY = 1974 305
 RNMODE = B                                                                    
 PATHEX = C:\DSSAT48\Wheat\                                                    
 FILEX  = RORO7401.WHX                                                         
 FILEB  = DSSBatch.v48                                                         
 FILEIO = DSSAT48.INP                                                          
 MODEL  = CSCER048                                                             
 TRTNUM =     7                                                                

 SOILDYN  YEAR DOY = 1974 305
 The soil file has missing or invalid data.                                    
 Default values have been used for these variables:                            
   CEC, STONES, ADCOEF, SAEA                                                   
 These defaults may or may not be important to your results.                   

 RETC  YEAR DOY = 1974 305
 Soil RETC parameters:                                                         
  LYR DS  SWCN   WCR    Hb Lambd  Alpha     m     n Texture                    
   1   5-99.00 0.042  18.5 0.328  0.003 0.287 1.402 ClayLoam                   
   2  15-99.00 0.049  13.7 0.297  0.004 0.261 1.353 ClayLoam                   
   3  25-99.00 0.057  10.1 0.273  0.005 0.242 1.320 ClayLoam                   
   4  35-99.00 0.084  14.4 0.195  0.004 0.189 1.233 ClayLoam                   
   5  45-99.00 0.084  14.4 0.195  0.004 0.189 1.233 ClayLoam                   
   6  55-99.00 0.084  14.4 0.195  0.004 0.189 1.233 ClayLoam                   
   7  65-99.00 0.084  14.4 0.195  0.004 0.189 1.233 ClayLoam                   
   8  95-99.00 0.084  14.4 0.195  0.004 0.189 1.233 ClayLoam                   
   9 125-99.00 0.084  14.4 0.195  0.004 0.189 1.233 ClayLoam                   
  10 155-99.00 0.084  14.4 0.195  0.004 0.189 1.233 ClayLoam                   

 SETPM     YEAR DOY = 1974 305
 Simulating flat surface with no plastic mulch.                                                                               

 SOILDYN  YEAR DOY = 1974 305
 Soil ID: IBWH980020                                                           
   ROTHAMSTED                                                                  
 ROTHAMSTED                                                                    
   SALB SWCON    CN  DMOD  SLPF SMPX                                           
   0.14  0.50  60.0  1.00  1.00 IB001                                          
 Soil layer distribution method: 2                                             
      DS DLAYR    LL   DUL   SAT  Root    BD    OC  CLAY  SILT  SAND           
 LYR  cm    cm  frac  frac  frac  Grow g/cm3     %     %     %     %    pH     
   1   5     5 0.110 0.280 0.330 1.000  1.10  1.16  30.0  30.0  40.0   7.0     
   2  15    10 0.130 0.300 0.375 0.950  1.15  1.08  30.0  30.0  40.0   7.0     
   3  25    10 0.150 0.320 0.420 0.900  1.20  1.00  30.0  30.0  40.0   7.0     
   4  35    10 0.220 0.370 0.420 0.700  1.25  0.68  30.0  30.0  40.0   7.0     
   5  45    10 0.220 0.370 0.420 0.700  1.25  0.68  30.0  30.0  40.0   7.0     
   6  55    10 0.220 0.370 0.420 0.500  1.25  0.26  30.0  30.0  40.0   7.0     
   7  65    10 0.220 0.370 0.420 0.500  1.25  0.26  30.0  30.0  40.0   7.0     
   8  95    30 0.220 0.370 0.420 0.200  1.25  0.25  30.0  30.0  40.0   7.0     
   9 125    30 0.220 0.370 0.420 0.100  1.25  0.20  30.0  30.0  40.0   7.0     
  10 155    30 0.220 0.370 0.420 0.050  1.25  0.20  30.0  30.0  40.0   7.0     

 SOILDYN  YEAR DOY = 1974 305
 Additional soil properties                                                    
                Convert                                                        
    Cation Adsrp  ppm /  SLCF                                                  
   L  Exch  Coef  kg/ha     %                                                  
   1  15.5   0.0   1.82   0.0                                                  
   2  15.5   0.0   0.87   0.0                                                  
   3  15.5   0.0   0.83   0.0                                                  
   4  15.5   0.0   0.80   0.0                                                  
   5  15.5   0.0   0.80   0.0                                                  
   6  15.5   0.0   0.80   0.0                                                  
   7  15.5   0.0   0.80   0.0                                                  
   8  15.5   0.0   0.27   0.0                                                  
   9  15.5   0.0   0.27   0.0                                                  
  10  15.5   0.0   0.27   0.0                                                  

 IPWTH   YEAR DOY = 1974 305
 C:\DSSAT48\Weather\RORO7401.WTH                                               
 Found daily weather data headers for:                                         
   SRAD           Col   7 -  11                                                
   TMAX           Col  13 -  17                                                
   TMIN           Col  19 -  23                                                
   RAIN           Col  25 -  29                                                

 ENDRUN  YEAR DOY = 1975 214
 Normal end of run        7                                                    

******************************************************************************

*DSSAT Cropping System Model Ver. 4.8.2.010 -develop  JUL 08, 2024 16:11:19

*RUN   8        : 210 KG N/HA               CSCER048 RORO7401    8
 MODEL          : CSCER048 - Wheat
 EXPERIMENT     : RORO7401 WH N RESPONSE,ROTHAMSTED  8FE(N)  (DSSAT3)
 DATA PATH      : C:\DSSAT48\Wheat\
 TREATMENT  8   : 210 KG N/HA               CSCER048
  

 CSM     YEAR DOY = 1974 305
 RNMODE = B                                                                    
 PATHEX = C:\DSSAT48\Wheat\                                                    
 FILEX  = RORO7401.WHX                                                         
 FILEB  = DSSBatch.v48                                                         
 FILEIO = DSSAT48.INP                                                          
 MODEL  = CSCER048                                                             
 TRTNUM =     8                                                                

 SOILDYN  YEAR DOY = 1974 305
 The soil file has missing or invalid data.                                    
 Default values have been used for these variables:                            
   CEC, STONES, ADCOEF, SAEA                                                   
 These defaults may or may not be important to your results.                   

 RETC  YEAR DOY = 1974 305
 Soil RETC parameters:                                                         
  LYR DS  SWCN   WCR    Hb Lambd  Alpha     m     n Texture                    
   1   5-99.00 0.042  18.5 0.328  0.003 0.287 1.402 ClayLoam                   
   2  15-99.00 0.049  13.7 0.297  0.004 0.261 1.353 ClayLoam                   
   3  25-99.00 0.057  10.1 0.273  0.005 0.242 1.320 ClayLoam                   
   4  35-99.00 0.084  14.4 0.195  0.004 0.189 1.233 ClayLoam                   
   5  45-99.00 0.084  14.4 0.195  0.004 0.189 1.233 ClayLoam                   
   6  55-99.00 0.084  14.4 0.195  0.004 0.189 1.233 ClayLoam                   
   7  65-99.00 0.084  14.4 0.195  0.004 0.189 1.233 ClayLoam                   
   8  95-99.00 0.084  14.4 0.195  0.004 0.189 1.233 ClayLoam                   
   9 125-99.00 0.084  14.4 0.195  0.004 0.189 1.233 ClayLoam                   
  10 155-99.00 0.084  14.4 0.195  0.004 0.189 1.233 ClayLoam                   

 SETPM     YEAR DOY = 1974 305
 Simulating flat surface with no plastic mulch.                                                                               

 SOILDYN  YEAR DOY = 1974 305
 Soil ID: IBWH980020                                                           
   ROTHAMSTED                                                                  
 ROTHAMSTED                                                                    
   SALB SWCON    CN  DMOD  SLPF SMPX                                           
   0.14  0.50  60.0  1.00  1.00 IB001                                          
 Soil layer distribution method: 2                                             
      DS DLAYR    LL   DUL   SAT  Root    BD    OC  CLAY  SILT  SAND           
 LYR  cm    cm  frac  frac  frac  Grow g/cm3     %     %     %     %    pH     
   1   5     5 0.110 0.280 0.330 1.000  1.10  1.16  30.0  30.0  40.0   7.0     
   2  15    10 0.130 0.300 0.375 0.950  1.15  1.08  30.0  30.0  40.0   7.0     
   3  25    10 0.150 0.320 0.420 0.900  1.20  1.00  30.0  30.0  40.0   7.0     
   4  35    10 0.220 0.370 0.420 0.700  1.25  0.68  30.0  30.0  40.0   7.0     
   5  45    10 0.220 0.370 0.420 0.700  1.25  0.68  30.0  30.0  40.0   7.0     
   6  55    10 0.220 0.370 0.420 0.500  1.25  0.26  30.0  30.0  40.0   7.0     
   7  65    10 0.220 0.370 0.420 0.500  1.25  0.26  30.0  30.0  40.0   7.0     
   8  95    30 0.220 0.370 0.420 0.200  1.25  0.25  30.0  30.0  40.0   7.0     
   9 125    30 0.220 0.370 0.420 0.100  1.25  0.20  30.0  30.0  40.0   7.0     
  10 155    30 0.220 0.370 0.420 0.050  1.25  0.20  30.0  30.0  40.0   7.0     

 SOILDYN  YEAR DOY = 1974 305
 Additional soil properties                                                    
                Convert                                                        
    Cation Adsrp  ppm /  SLCF                                                  
   L  Exch  Coef  kg/ha     %                                                  
   1  15.5   0.0   1.82   0.0                                                  
   2  15.5   0.0   0.87   0.0                                                  
   3  15.5   0.0   0.83   0.0                                                  
   4  15.5   0.0   0.80   0.0                                                  
   5  15.5   0.0   0.80   0.0                                                  
   6  15.5   0.0   0.80   0.0                                                  
   7  15.5   0.0   0.80   0.0                                                  
   8  15.5   0.0   0.27   0.0                                                  
   9  15.5   0.0   0.27   0.0                                                  
  10  15.5   0.0   0.27   0.0                                                  

 IPWTH   YEAR DOY = 1974 305
 C:\DSSAT48\Weather\RORO7401.WTH                                               
 Found daily weather data headers for:                                         
   SRAD           Col   7 -  11                                                
   TMAX           Col  13 -  17                                                
   TMIN           Col  19 -  23                                                
   RAIN           Col  25 -  29                                                

 ENDRUN  YEAR DOY = 1975 214
 Normal end of run        8                                                    
