*N2O emissions output file

*DSSAT Cropping System Model Ver. 4.8.2.010 -develop  JUL 08, 2024 16:11:18

*RUN   1        : 0 KG N/HA                 CSCER048 RORO7401    1
 MODEL          : CSCER048 - Wheat
 EXPERIMENT     : RORO7401 WH N RESPONSE,ROTHAMSTED  8FE(N)  (DSSAT3)
 DATA PATH      : C:\DSSAT48\Wheat\
 TREATMENT  1   : 0 KG N/HA                 CSCER048
  
!              |------------------------------ Cumulative -----------------------------|------------------------------ Daily ----------------------------------|
!               N2Oemit  N2emit  NOemit   Denit  Nitrif   N2O-denit+nit      N2      NO N2Oemit  N2emit  NOemit   Denit  Nitrif   N2O-denit+nit      N2      NO   Denitrification (g[N]/ha) by soil depth (cm):                                   Nitrification (g[N]/ha) by soil depth (cm):                                     N2O flux (g[N]/ha) by soil depth (cm):                                          N2 flux (g[N]/ha) by soil depth (cm):                                           NO flux (g[N]/ha) by soil depth (cm):
!                 kg/ha   kg/ha   kg/ha   kg/ha   kg/ha   kg/ha   kg/ha   kg/ha   kg/ha    g/ha    g/ha    g/ha    g/ha    g/ha    g/ha    g/ha    g/ha    g/ha     0-5    5-15   15-25   25-35   35-45   45-55   55-65   65-95  95-125 125-155     0-5    5-15   15-25   25-35   35-45   45-55   55-65   65-95  95-125 125-155     0-5    5-15   15-25   25-35   35-45   45-55   55-65   65-95  95-125 125-155     0-5    5-15   15-25   25-35   35-45   45-55   55-65   65-95  95-125 125-155     0-5    5-15   15-25   25-35   35-45   45-55   55-65   65-95  95-125 125-155
@YEAR DOY   DAS   N2OEC    N2EC    NOEC    NDNC    NITC   N2ODC   N2ONC   N2FLC   NOFLC  N2OGED   N2GED   NOGED    NDND   NITRD   N2ODD   N2OND   N2FLD   NOFLD   NDN1D   NDN2D   NDN3D   NDN4D   NDN5D   NDN6D   NDN7D   NDN8D   NDN9D   NDN10   NIT1D   NIT2D   NIT3D   NIT4D   NIT5D   NIT6D   NIT7D   NIT8D   NIT9D   NIT10   N2O1D   N2O2D   N2O3D   N2O4D   N2O5D   N2O6D   N2O7D   N2O8D   N2O9D   N2O10   N2F1D   N2F2D   N2F3D   N2F4D   N2F5D   N2F6D   N2F7D   N2F8D   N2F9D   N2F10   NOF1D   NOF2D   NOF3D   NOF4D   NOF5D   NOF6D   NOF7D   NOF8D   NOF9D   NOF10
 1974 305     1    0.00    0.00    0.00    0.00     3.1   0.000   0.003   0.000   0.007     0.0     0.0     0.0     0.0    3064    0.00    3.06    0.00    6.84     0.0     0.0     0.0     0.0     0.0     0.0     0.0     0.0     0.0     0.0      7.    112.    201.    367.    376.    257.    263.    821.    433.    227.     0.0     0.1     0.2     0.4     0.4     0.3     0.3     0.8     0.4     0.2     0.0     0.0     0.0     0.0     0.0     0.0     0.0     0.0     0.0     0.0     0.0     0.3     0.7     0.8     0.8     0.5     0.6     1.7     0.9     0.5
 1974 306     2    0.00    0.00    0.00    0.00     5.8   0.000   0.006   0.000   0.011     0.0     0.0     0.0     0.0    2777    0.00    2.78    0.00    4.27     0.0     0.0     0.0     0.0     0.0     0.0     0.0     0.0     0.0     0.0     34.    120.    176.    331.    338.    230.    235.    731.    383.    199.     0.0     0.1     0.2     0.3     0.3     0.2     0.2     0.7     0.4     0.2     0.0     0.0     0.0     0.0     0.0     0.0     0.0     0.0     0.0     0.0     0.1     0.3     0.3     0.5     0.5     0.3     0.3     1.0     0.5     0.3
 1974 307     3    0.00    0.00    0.00    0.00     8.5   0.000   0.008   0.000   0.014     0.0     0.0     0.1     0.0    2637    0.00    2.64    0.00    2.94     0.0     0.0     0.0     0.0     0.0     0.0     0.0     0.0     0.0     0.0     45.    140.    177.    313.    319.    216.    219.    676.    350.    181.     0.0     0.1     0.2     0.3     0.3     0.2     0.2     0.7     0.4     0.2     0.0     0.0     0.0     0.0     0.0     0.0     0.0     0.0     0.0     0.0     0.2     0.3     0.2     0.3     0.3     0.2     0.2     0.7     0.3     0.2
 1974 308     4    0.00    0.00    0.00    0.00    10.7   0.000   0.011   0.000   0.016     0.0     0.0     0.1     0.0    2244    0.00    2.24    0.00    2.08     0.0     0.0     0.0     0.0     0.0     0.0     0.0     0.0     0.0     0.0     38.    129.    172.     92.    299.    202.    204.    624.    320.    164.     0.0     0.1     0.2     0.1     0.3     0.2     0.2     0.6     0.3     0.2     0.0     0.0     0.0     0.0     0.0     0.0     0.0     0.0     0.0     0.0     0.1     0.2     0.2     0.1     0.3     0.2     0.2     0.5     0.3     0.1
 1974 309     5    0.00    0.00    0.00    0.00    12.8   0.000   0.013   0.000   0.018     0.1     0.0     0.2     0.0    2121    0.00    2.12    0.00    2.33     0.0     0.0     0.0     0.0     0.0     0.0     0.0     0.0     0.0     0.0     56.    152.    185.     97.    273.    183.    184.    561.    285.    145.     0.1     0.2     0.2     0.1     0.3     0.2     0.2     0.6     0.3     0.1     0.0     0.0     0.0     0.0     0.0     0.0     0.0     0.0     0.0     0.0     0.2     0.4     0.3     0.1     0.2     0.2     0.2     0.5     0.2     0.1
 1974 310     6    0.00    0.00    0.00    0.00    14.8   0.000   0.015   0.000   0.021     0.1     0.0     0.4     0.0    1994    0.00    1.99    0.00    2.52     0.0     0.0     0.0     0.0     0.0     0.0     0.0     0.0     0.0     0.0     66.    162.    189.     99.    251.    167.    168.    508.    256.    129.     0.1     0.2     0.2     0.1     0.3     0.2     0.2     0.5     0.3     0.1     0.0     0.0     0.0     0.0     0.0     0.0     0.0     0.0     0.0     0.0     0.3     0.5     0.3     0.1     0.2     0.1     0.1     0.4     0.2     0.1
 1974 311     7    0.00    0.00    0.00    0.00    16.5   0.000   0.016   0.000   0.023     0.2     0.0     0.4     0.0    1662    0.00    1.66    0.00    2.23     0.0     0.0     0.0     0.0     0.0     0.0     0.0     0.0     0.0     0.0     62.    157.    181.     96.     76.    150.    150.    451.    225.    114.     0.1     0.2     0.2     0.1     0.1     0.1     0.1     0.5     0.2     0.1     0.0     0.0     0.0     0.0     0.0     0.0     0.0     0.0     0.0     0.0     0.3     0.5     0.3     0.1     0.1     0.1     0.1     0.4     0.2     0.1
 1974 312     8    0.00    0.00    0.00    0.01    18.0   0.001   0.018   0.007   0.029     0.3     0.7     0.9     8.2    1473    1.27    1.47    6.95    5.30     4.2     1.6     1.0     1.4     0.0     0.0     0.0     0.0     0.0     0.0     46.    143.    167.     92.     73.    131.    132.    395.    196.     99.     0.7     0.4     0.3     0.3     0.1     0.1     0.1     0.4     0.2     0.1     3.6     1.4     0.9     1.2     0.0     0.0     0.0     0.0     0.0     0.0     2.3     1.3     0.6     0.2     0.1     0.1     0.1     0.3     0.2     0.1
 1974 313     9    0.00    0.00    0.00    0.02    19.3   0.002   0.019   0.013   0.033     0.4     1.1     1.3     7.1    1351    1.11    1.35    5.94    4.81     2.7     1.6     1.1     1.6     0.0     0.0     0.0     0.0     0.0     0.0     51.    136.    159.     90.     71.    117.    117.    351.    173.     87.     0.4     0.4     0.4     0.4     0.1     0.1     0.1     0.4     0.2     0.1     2.3     1.3     1.0     1.4     0.0     0.0     0.0     0.0     0.0     0.0     1.9     1.2     0.6     0.3     0.1     0.1     0.1     0.3     0.1     0.1
 1974 314    10    0.00    0.00    0.00    0.03    20.6   0.005   0.021   0.026   0.040     0.5     1.9     1.4    15.6    1240    2.41    1.24   13.18    6.32     7.4     3.7     2.0     2.5     0.0     0.0     0.0     0.0     0.0     0.0     32.    126.    152.     89.     71.    108.    108.    320.    156.     78.     1.1     0.7     0.5     0.5     0.1     0.1     0.1     0.3     0.2     0.1     6.3     3.1     1.7     2.1     0.0     0.0     0.0     0.0     0.0     0.0     2.5     1.9     0.8     0.4     0.1     0.1     0.1     0.3     0.1     0.1
 1974 315    11    0.00    0.01    0.01    0.06    21.6   0.010   0.022   0.054   0.047     0.7     2.8     1.7    32.8    1061    5.35    1.06   27.43    7.74     5.3    11.9     5.8     5.9     3.9     0.0     0.0     0.0     0.0     0.0     34.     88.    128.     77.     65.     94.     94.    278.    135.     68.     0.6     2.1     1.2     1.1     0.7     0.1     0.1     0.3     0.1     0.1     4.7     9.9     4.8     4.9     3.2     0.0     0.0     0.0     0.0     0.0     1.6     3.0     1.4     0.7     0.5     0.1     0.1     0.2     0.1     0.1
 1974 316    12    0.00    0.01    0.01    0.12    22.5   0.019   0.023   0.096   0.056     0.7     3.5     1.8    51.5     914    8.59    0.91   42.94    8.29     5.0    17.0    10.2    11.5     7.8     0.0     0.0     0.0     0.0     0.0     30.     68.    109.     64.     57.     83.     83.    245.    118.     60.     0.5     2.9     2.0     2.1     1.4     0.1     0.1     0.2     0.1     0.1     4.5    14.1     8.4     9.5     6.4     0.0     0.0     0.0     0.0     0.0     1.2     2.9     1.7     1.1     0.9     0.1     0.1     0.2     0.1     0.1
 1974 317    13    0.00    0.01    0.01    0.16    23.3   0.026   0.023   0.133   0.063     1.0     4.7     2.2    44.1     761    7.56    0.76   36.58    7.71     2.6     9.0     8.9    13.2    10.4     0.0     0.0     0.0     0.0     0.0     37.     80.    100.     55.     48.     22.     68.    202.     98.     50.     0.3     1.5     1.7     2.4     1.9     0.0     0.1     0.2     0.1     0.1     2.4     7.6     7.3    10.8     8.5     0.0     0.0     0.0     0.0     0.0     1.1     2.5     1.6     1.2     1.0     0.0     0.1     0.2     0.1     0.0
 1974 318    14    0.00    0.02    0.01    0.22    23.8   0.036   0.024   0.185   0.069     0.9     4.5     1.9    61.7     526    9.93    0.53   51.73    5.82     2.1    10.9    16.6    15.9    16.1     0.0     0.0     0.0     0.0     0.0     23.     51.     61.     45.     34.     12.     11.    167.     81.     42.     0.1     1.3     2.8     2.9     3.0     0.0     0.0     0.2     0.1     0.0     2.0     9.7    13.8    13.0    13.2     0.0     0.0     0.0     0.0     0.0     0.3     1.3     1.4     1.3     1.3     0.0     0.0     0.1     0.1     0.0
 1974 319    15    0.01    0.02    0.01    0.28    24.2   0.045   0.024   0.233   0.074     1.0     5.0     1.9    57.2     374    9.04    0.37   48.21    5.05     1.4     9.3    15.4    15.3    15.8     0.0     0.0     0.0     0.0     0.0     22.     48.     58.     43.     33.     12.     11.     43.     69.     36.     0.1     1.0     2.5     2.8     2.9     0.0     0.0     0.0     0.1     0.0     1.4     8.4    12.9    12.6    12.9     0.0     0.0     0.0     0.0     0.0     0.2     1.0     1.3     1.2     1.3     0.0     0.0     0.0     0.1     0.0
 1974 320    16    0.01    0.03    0.02    0.33    24.6   0.054   0.025   0.278   0.079     1.1     5.5     1.9    53.5     357    8.33    0.36   45.15    4.77     1.2     8.7    12.8    15.1    15.8     0.0     0.0     0.0     0.0     0.0     22.     46.     62.     43.     33.     11.     10.     39.     60.     32.     0.1     0.9     2.0     2.7     2.9     0.0     0.0     0.0     0.1     0.0     1.2     7.8    10.8    12.4    12.9     0.0     0.0     0.0     0.0     0.0     0.1     0.9     1.2     1.2     1.3     0.0     0.0     0.0     0.1     0.0
 1974 321    17    0.01    0.04    0.02    0.39    24.9   0.063   0.025   0.329   0.084     1.1     6.0     1.9    60.6     337    9.55    0.34   51.10    5.28     1.2     7.5    10.8    14.9    15.7    10.5     0.0     0.0     0.0     0.0     20.     45.     63.     41.     32.     11.     10.     36.     52.     28.     0.1     0.7     1.7     2.6     2.9     1.8     0.0     0.0     0.1     0.0     1.2     6.8     9.3    12.3    12.9     8.7     0.0     0.0     0.0     0.0     0.1     0.8     1.1     1.1     1.2     0.8     0.0     0.0     0.0     0.0
 1974 322    18    0.01    0.04    0.02    0.46    25.2   0.072   0.025   0.384   0.089     1.2     6.3     1.8    63.8     258    9.30    0.26   54.54    4.49     0.6     4.9    10.4    12.7    14.6    10.6    10.2     0.0     0.0     0.0     19.     39.     50.     40.     31.     10.     10.     25.      9.     24.     0.0     0.3     1.2     2.0     2.5     1.8     1.7     0.0     0.0     0.0     0.6     4.6     9.2    10.7    12.1     8.8     8.5     0.0     0.0     0.0     0.1     0.3     0.6     0.9     1.1     0.8     0.7     0.0     0.0     0.0
 1974 323    19    0.01    0.05    0.02    0.54    25.4   0.084   0.025   0.453   0.094     1.2     6.6     1.8    81.3     236   11.71    0.24   69.60    5.67     0.6     4.5     8.5    12.4    14.5    10.6    10.3    19.9     0.0     0.0     16.     36.     53.     38.     30.     10.      9.     28.      9.      6.     0.0     0.3     1.0     1.9     2.5     1.8     1.7     2.8     0.0     0.0     0.6     4.3     7.6    10.6    12.1     8.8     8.6    17.1     0.0     0.0     0.1     0.3     0.6     0.8     1.1     0.8     0.7     1.4     0.0     0.0
 1974 324    20    0.01    0.06    0.02    0.61    25.6   0.095   0.026   0.520   0.100     1.3     7.1     1.8    77.3     208   11.01    0.21   66.29    5.25     0.4     3.7     8.7    11.2    13.4    10.0     9.8    20.1     0.0     0.0     15.     32.     42.     35.     27.      9.      8.     25.      9.      5.     0.0     0.2     0.9     1.6     2.2     1.7     1.6     2.9     0.0     0.0     0.4     3.6     7.8     9.6    11.2     8.3     8.2    17.2     0.0     0.0     0.0     0.2     0.5     0.7     1.0     0.7     0.7     1.4     0.0     0.0
 1974 325    21    0.01    0.06    0.03    0.69    25.8   0.106   0.026   0.586   0.105     1.3     7.1     1.7    77.2     181   10.93    0.18   66.26    4.97     0.0     3.1     7.6    10.3    12.7     9.7     9.7    24.1     0.0     0.0     12.     27.     37.     32.     25.      8.      8.     20.      8.      4.     0.0     0.2     0.7     1.4     2.1     1.6     1.6     3.5     0.0     0.0     0.0     3.0     6.9     8.9    10.7     8.1     8.1    20.6     0.0     0.0     0.0     0.2     0.4     0.6     0.9     0.7     0.7     1.5     0.0     0.0
 1974 326    22    0.01    0.07    0.03    0.78    25.9   0.118   0.026   0.662   0.110     1.3     7.4     1.6    88.1     174   11.52    0.17   76.53    5.15     0.0     2.3     6.1     8.9    11.6     9.3     9.6    25.4    15.0     0.0     12.     26.     36.     31.     24.      8.      7.     19.      7.      4.     0.0     0.1     0.5     1.1     1.7     1.5     1.6     3.8     1.4     0.0     0.0     2.2     5.6     7.8     9.9     7.8     8.0    21.7    13.6     0.0     0.0     0.1     0.2     0.5     0.8     0.7     0.7     1.6     0.6     0.0
 1974 327    23    0.02    0.08    0.03    0.87    26.2   0.128   0.026   0.737   0.115     1.6     8.9     1.9    85.6     201   10.64    0.20   74.92    5.13     0.0     1.3     4.2     8.8    11.6     9.4     9.7    18.7    13.4     8.3     16.     35.     44.     32.     24.      8.      7.     23.      8.      4.     0.0     0.1     0.3     1.1     1.7     1.5     1.6     2.8     1.3     0.5     0.0     1.3     3.9     7.8     9.9     7.9     8.1    16.0    12.1     7.8     0.1     0.1     0.2     0.5     0.7     0.7     0.7     1.4     0.6     0.2
 1974 328    24    0.02    0.09    0.03    0.94    26.4   0.138   0.026   0.803   0.120     1.8    10.1     2.0    75.5     221    9.48    0.22   66.02    4.87     0.0     0.8     2.8     8.7    11.6     9.4     9.8    13.6    11.1     7.5     17.     39.     51.     33.     25.      8.      8.     26.      9.      4.     0.0     0.1     0.2     1.0     1.7     1.5     1.6     2.0     1.1     0.4     0.0     0.8     2.6     7.7     9.9     7.9     8.2    11.7    10.0     7.1     0.1     0.1     0.2     0.4     0.7     0.7     0.7     1.1     0.6     0.2
 1974 329    25    0.02    0.10    0.03    1.01    26.6   0.146   0.027   0.861   0.124     1.7     9.4     1.7    65.9     221    8.33    0.22   57.55    4.48     0.0     0.7     2.0     7.4    10.7     9.0     9.6    11.0     9.0     6.5     12.     38.     53.     36.     26.      8.      7.     27.      9.      5.     0.0     0.1     0.2     0.9     1.5     1.4     1.6     1.6     0.9     0.4     0.0     0.7     1.9     6.5     9.1     7.6     8.1     9.4     8.1     6.1     0.0     0.1     0.2     0.4     0.7     0.6     0.7     1.0     0.5     0.2
 1974 330    26    0.02    0.11    0.03    1.04    26.9   0.150   0.027   0.889   0.127     2.1    11.9     2.1    31.6     258    3.90    0.26   27.66    2.92     0.0     0.3     0.9     3.4     5.0     4.3     4.6     5.2     4.5     3.4     16.     39.     56.     46.     35.     11.     10.     29.     11.      6.     0.0     0.0     0.1     0.4     0.7     0.7     0.7     0.8     0.5     0.2     0.0     0.3     0.9     3.1     4.3     3.6     3.9     4.5     4.1     3.1     0.1     0.1     0.2     0.3     0.4     0.4     0.4     0.6     0.3     0.1
 1974 331    27    0.02    0.12    0.04    1.07    27.1   0.153   0.027   0.912   0.130     2.2    12.5     2.1    26.5     242    3.29    0.24   23.21    2.57     0.2     0.2     0.7     2.6     4.2     3.7     4.2     4.3     3.6     2.7     14.     34.     51.     45.     34.     10.     10.     28.     10.      6.     0.0     0.0     0.1     0.3     0.6     0.6     0.7     0.6     0.4     0.2     0.2     0.2     0.6     2.4     3.6     3.2     3.5     3.7     3.2     2.6     0.1     0.1     0.2     0.2     0.4     0.4     0.4     0.5     0.3     0.1
 1974 332    28    0.03    0.14    0.04    1.09    27.3   0.156   0.027   0.932   0.132     2.2    12.0     1.9    22.6     216    2.79    0.22   19.84    2.24     0.3     0.3     0.6     2.2     3.4     3.2     3.7     3.7     3.0     2.2     10.     29.     45.     42.     32.     10.      9.     25.     10.      6.     0.0     0.0     0.1     0.3     0.5     0.5     0.6     0.6     0.3     0.1     0.3     0.3     0.6     1.9     2.9     2.7     3.1     3.2     2.7     2.1     0.0     0.1     0.1     0.2     0.3     0.3     0.4     0.4     0.2     0.1
 1974 333    29    0.03    0.15    0.04    1.11    27.5   0.159   0.027   0.949   0.134     2.0    11.0     1.7    20.0     192    2.50    0.19   17.50    1.98     0.0     0.0     0.9     2.3     3.2     2.8     3.3     3.2     2.5     1.9      7.     24.     39.     38.     29.      9.      8.     24.      9.      5.     0.0     0.0     0.1     0.3     0.5     0.4     0.5     0.5     0.3     0.1     0.0     0.0     0.8     2.1     2.7     2.4     2.8     2.8     2.2     1.7     0.0     0.1     0.1     0.2     0.3     0.3     0.3     0.4     0.2     0.1
 1974 334    30    0.03    0.16    0.04    1.13    27.7   0.161   0.028   0.969   0.136     2.0    11.2     1.7    22.1     178    2.74    0.18   19.40    2.05     0.0     0.0     1.7     3.6     3.9     3.0     3.2     3.0     2.2     1.6      7.     19.     35.     35.     28.      9.      8.     23.      9.      5.     0.0     0.0     0.1     0.4     0.6     0.5     0.5     0.4     0.2     0.1     0.0     0.0     1.6     3.2     3.4     2.5     2.7     2.5     2.0     1.5     0.0     0.0     0.2     0.3     0.4     0.3     0.3     0.3     0.2     0.1
 1974 335    31    0.03    0.17    0.04    1.14    27.9   0.163   0.028   0.979   0.137     2.5    13.6     2.0    12.1     194    1.51    0.19   10.63    1.41     0.0     0.0     0.8     1.7     1.9     1.4     1.6     2.9     1.1     0.8     10.     23.     36.     39.     31.      9.      9.     23.      9.      6.     0.0     0.0     0.1     0.2     0.3     0.2     0.2     0.4     0.1     0.1     0.0     0.0     0.7     1.5     1.6     1.2     1.3     2.5     1.0     0.7     0.0     0.1     0.1     0.2     0.2     0.2     0.2     0.3     0.1     0.0
 1974 336    32    0.04    0.19    0.05    1.15    28.1   0.164   0.028   0.990   0.139     2.7    14.4     2.1    12.6     195    1.56    0.19   11.07    1.46     0.0     0.0     0.8     2.0     2.3     1.6     1.7     2.2     1.3     0.8     11.     24.     36.     39.     30.      9.      9.     23.      9.      6.     0.0     0.0     0.1     0.3     0.3     0.3     0.3     0.3     0.1     0.1     0.0     0.0     0.7     1.8     2.0     1.4     1.4     1.9     1.1     0.7     0.0     0.1     0.1     0.2     0.2     0.2     0.2     0.3     0.1     0.0
 1974 337    33    0.04    0.20    0.05    1.16    28.3   0.165   0.028   0.998   0.140     2.9    15.4     2.2     8.5     211    1.03    0.21    7.43    1.15     0.0     0.0     0.4     1.0     1.1     0.8     0.8     2.2     1.3     0.8     12.     25.     38.     44.     34.     10.      9.     24.      9.      6.     0.0     0.0     0.1     0.2     0.2     0.1     0.1     0.3     0.1     0.1     0.0     0.0     0.4     0.9     1.0     0.7     0.7     1.9     1.1     0.7     0.1     0.1     0.1     0.1     0.1     0.1     0.1     0.3     0.1     0.0
 1974 338    34    0.04    0.22    0.05    1.17    28.5   0.166   0.028   1.005   0.141     3.0    15.9     2.2     8.4     215    1.03    0.21    7.42    1.16     0.0     0.1     0.2     1.0     1.1     0.8     0.8     2.2     1.3     0.8     11.     24.     39.     46.     35.     10.     10.     24.      9.      6.     0.0     0.0     0.1     0.2     0.2     0.1     0.1     0.3     0.1     0.1     0.0     0.1     0.2     0.9     1.0     0.7     0.7     1.9     1.2     0.8     0.1     0.1     0.1     0.1     0.1     0.1     0.1     0.3     0.1     0.0
 1974 339    35    0.04    0.23    0.05    1.18    28.7   0.167   0.029   1.012   0.142     3.1    16.1     2.2     7.7     218    0.95    0.22    6.77    1.13     0.0     0.0     0.1     0.9     1.0     0.8     0.8     2.1     1.2     0.8     21.     20.     37.     46.     35.     10.      9.     24.      9.      7.     0.0     0.0     0.0     0.1     0.2     0.1     0.1     0.3     0.1     0.1     0.0     0.0     0.1     0.8     0.9     0.6     0.6     1.8     1.1     0.7     0.1     0.1     0.1     0.1     0.1     0.1     0.1     0.3     0.1     0.0
 1974 340    36    0.05    0.25    0.05    1.19    28.9   0.168   0.029   1.018   0.143     3.1    16.2     2.2     6.8     200    0.85    0.20    5.98    1.00     0.0     0.0     0.1     0.8     0.9     0.7     0.7     1.9     1.1     0.7     11.     26.     32.     43.     33.      9.      8.     22.      9.      6.     0.0     0.0     0.0     0.1     0.2     0.1     0.1     0.3     0.1     0.1     0.0     0.0     0.1     0.7     0.8     0.6     0.6     1.6     1.0     0.7     0.1     0.1     0.1     0.1     0.1     0.1     0.1     0.2     0.1     0.0
 1974 341    37    0.05    0.27    0.06    1.19    29.1   0.169   0.029   1.023   0.144     3.1    16.1     2.1     6.1     167    0.76    0.17    5.38    0.82     0.0     0.0     0.0     0.7     0.8     0.6     0.6     1.7     1.0     0.7      0.     16.     29.     40.     31.      8.      8.     21.      9.      6.     0.0     0.0     0.0     0.1     0.1     0.1     0.1     0.3     0.1     0.1     0.0     0.0     0.0     0.6     0.7     0.5     0.5     1.5     0.9     0.6     0.0     0.1     0.1     0.1     0.1     0.1     0.1     0.2     0.1     0.0
 1974 342    38    0.05    0.28    0.06    1.20    29.2   0.170   0.029   1.028   0.145     3.1    16.1     2.1     5.5     160    0.68    0.16    4.79    0.74     0.0     0.0     0.0     0.6     0.7     0.5     0.5     1.6     0.9     0.6      0.      7.     39.     37.     29.      7.      7.     19.      8.      6.     0.0     0.0     0.0     0.1     0.1     0.1     0.1     0.2     0.1     0.0     0.0     0.0     0.0     0.5     0.6     0.4     0.5     1.3     0.8     0.6     0.0     0.0     0.1     0.1     0.1     0.1     0.1     0.2     0.1     0.0
 1974 343    39    0.06    0.30    0.06    1.20    29.4   0.170   0.029   1.033   0.146     3.1    15.6     2.0     5.3     139    0.66    0.14    4.64    0.68     0.0     0.0     0.0     0.6     0.7     0.5     0.5     1.5     0.9     0.6      0.      0.     32.     35.     27.      7.      6.     18.      8.      6.     0.0     0.0     0.0     0.1     0.1     0.1     0.1     0.2     0.1     0.0     0.0     0.0     0.0     0.5     0.6     0.4     0.4     1.3     0.8     0.6     0.0     0.0     0.1     0.1     0.1     0.1     0.1     0.2     0.1     0.0
 1974 344    40    0.06    0.31    0.06    1.21    29.5   0.171   0.030   1.037   0.146     3.1    15.8     2.0     4.8     125    0.59    0.13    4.16    0.61     0.0     0.0     0.0     0.5     0.6     0.4     0.5     1.4     0.8     0.6      0.      0.     27.     32.     25.      6.      6.     17.      7.      6.     0.0     0.0     0.0     0.1     0.1     0.1     0.1     0.2     0.1     0.0     0.0     0.0     0.0     0.4     0.5     0.4     0.4     1.2     0.7     0.5     0.0     0.0     0.1     0.1     0.1     0.1     0.1     0.2     0.1     0.0
 1974 345    41    0.06    0.32    0.06    1.22    29.6   0.172   0.030   1.046   0.147     2.2    11.2     1.4    10.3      97    1.32    0.10    9.03    1.05     0.0     0.0     0.0     3.0     2.2     1.1     0.8     2.0     0.8     0.5      0.      0.     12.     25.     21.      5.      5.     15.      7.      6.     0.0     0.0     0.0     0.4     0.3     0.2     0.1     0.3     0.1     0.0     0.0     0.0     0.0     2.7     1.9     0.9     0.6     1.7     0.7     0.5     0.0     0.0     0.0     0.2     0.2     0.1     0.1     0.2     0.1     0.0
 1974 346    42    0.06    0.33    0.07    1.24    29.7   0.175   0.030   1.061   0.149     2.2    11.0     1.4    18.0      79    2.30    0.08   15.66    1.55     0.0     0.0     0.0     5.6     4.6     2.3     1.6     1.6     1.8     0.5      0.      0.      9.     19.     17.      4.      4.     14.      6.      6.     0.0     0.0     0.0     0.6     0.7     0.3     0.2     0.2     0.2     0.0     0.0     0.0     0.0     4.9     4.0     2.0     1.3     1.4     1.6     0.5     0.0     0.0     0.0     0.3     0.4     0.2     0.2     0.2     0.2     0.0
 1974 347    43    0.07    0.35    0.07    1.26    29.7   0.178   0.030   1.084   0.151     2.1    10.6     1.3    26.3      65    3.41    0.06   22.89    2.00     0.1     0.0     0.0     7.6     7.3     4.0     2.9     2.1     1.6     0.7      0.      0.      8.     14.     13.      3.      4.     12.      6.      5.     0.0     0.0     0.0     0.9     1.0     0.6     0.5     0.3     0.2     0.1     0.1     0.0     0.0     6.8     6.3     3.4     2.4     1.8     1.4     0.7     0.0     0.0     0.0     0.4     0.5     0.4     0.3     0.2     0.1     0.0
 1974 348    44    0.07    0.36    0.07    1.27    29.8   0.179   0.030   1.090   0.152     2.6    12.9     1.6     7.0      66    0.92    0.07    6.06    0.74     0.0     0.0     0.0     0.0     0.0     1.8     1.3     1.8     1.5     0.7      0.      0.      8.     17.     14.      3.      3.     11.      5.      5.     0.0     0.0     0.0     0.0     0.0     0.3     0.2     0.3     0.2     0.1     0.0     0.0     0.0     0.0     0.0     1.5     1.1     1.6     1.3     0.6     0.0     0.0     0.0     0.0     0.0     0.2     0.1     0.2     0.1     0.0
 1974 349    45    0.07    0.37    0.07    1.27    29.9   0.179   0.030   1.094   0.152     2.7    13.5     1.6     3.6      60    0.43    0.06    3.22    0.38     0.0     0.0     0.0     0.0     0.0     0.0     0.0     1.7     1.3     0.7      0.      0.      7.     15.     12.      3.      3.     10.      5.      5.     0.0     0.0     0.0     0.0     0.0     0.0     0.0     0.3     0.1     0.1     0.0     0.0     0.0     0.0     0.0     0.0     0.0     1.4     1.1     0.7     0.0     0.0     0.0     0.0     0.0     0.0     0.0     0.2     0.1     0.0
 1974 350    46    0.07    0.39    0.07    1.28    29.9   0.180   0.030   1.097   0.152     2.9    14.3     1.7     3.8      60    0.45    0.06    3.34    0.40     0.0     0.0     0.0     0.0     0.0     0.0     0.0     1.8     1.2     0.7      0.      0.      7.     16.     12.      3.      3.     10.      5.      5.     0.0     0.0     0.0     0.0     0.0     0.0     0.0     0.3     0.1     0.1     0.0     0.0     0.0     0.0     0.0     0.0     0.0     1.6     1.1     0.7     0.0     0.0     0.0     0.0     0.0     0.0     0.0     0.2     0.1     0.0
 1974 351    47    0.08    0.40    0.07    1.28    30.0   0.180   0.030   1.101   0.153     2.3    11.4     1.4     4.4      61    0.53    0.06    3.92    0.46     0.0     0.0     0.0     0.0     0.0     0.0     0.0     2.2     1.4     0.8      0.      0.      7.     16.     13.      3.      3.     10.      5.      5.     0.0     0.0     0.0     0.0     0.0     0.0     0.0     0.3     0.2     0.1     0.0     0.0     0.0     0.0     0.0     0.0     0.0     1.9     1.2     0.8     0.0     0.0     0.0     0.0     0.0     0.0     0.0     0.3     0.1     0.0
 1974 352    48    0.08    0.41    0.07    1.29    30.1   0.181   0.030   1.105   0.153     2.8    13.8     1.7     4.2      64    0.50    0.06    3.68    0.45     0.0     0.0     0.0     0.0     0.0     0.0     0.0     2.1     1.3     0.8      0.      0.      7.     18.     14.      3.      3.      9.      5.      5.     0.0     0.0     0.0     0.0     0.0     0.0     0.0     0.3     0.1     0.1     0.0     0.0     0.0     0.0     0.0     0.0     0.0     1.8     1.2     0.7     0.0     0.0     0.0     0.0     0.0     0.0     0.0     0.2     0.1     0.0
 1974 353    49    0.08    0.43    0.08    1.29    30.1   0.181   0.030   1.108   0.154     3.0    14.7     1.8     3.6      64    0.42    0.06    3.16    0.39     0.0     0.0     0.0     0.0     0.0     0.0     0.0     1.6     1.2     0.8      0.      0.      7.     18.     14.      3.      3.      9.      5.      5.     0.0     0.0     0.0     0.0     0.0     0.0     0.0     0.2     0.1     0.1     0.0     0.0     0.0     0.0     0.0     0.0     0.0     1.4     1.1     0.7     0.0     0.0     0.0     0.0     0.0     0.0     0.0     0.2     0.1     0.0
 1974 354    50    0.09    0.44    0.08    1.29    30.2   0.182   0.030   1.111   0.154     3.1    15.1     1.8     3.5      65    0.41    0.07    3.12    0.39     0.0     0.0     0.0     0.0     0.0     0.0     0.0     1.6     1.2     0.8      0.      0.      7.     18.     14.      3.      3.      9.      5.      5.     0.0     0.0     0.0     0.0     0.0     0.0     0.0     0.2     0.1     0.1     0.0     0.0     0.0     0.0     0.0     0.0     0.0     1.3     1.1     0.7     0.0     0.0     0.0     0.0     0.0     0.0     0.0     0.2     0.1     0.0
 1974 355    51    0.09    0.46    0.08    1.30    30.2   0.182   0.030   1.116   0.155     3.1    15.2     1.8     5.3      67    0.67    0.07    4.68    0.59     0.0     0.0     0.0     0.0     0.7     0.6     0.6     1.5     1.2     0.7      0.      0.      7.     19.     15.      3.      3.     10.      5.      5.     0.0     0.0     0.0     0.0     0.1     0.1     0.1     0.2     0.1     0.1     0.0     0.0     0.0     0.0     0.6     0.5     0.5     1.3     1.0     0.7     0.0     0.0     0.0     0.0     0.1     0.1     0.1     0.2     0.1     0.0
 1974 356    52    0.09    0.47    0.08    1.30    30.3   0.183   0.030   1.122   0.155     2.4    11.8     1.4     7.2      67    0.89    0.07    6.27    0.76     0.0     0.0     0.0     0.8     0.9     0.7     0.7     2.2     1.2     0.8      0.      0.      7.     19.     15.      3.      3.     10.      5.      5.     0.0     0.0     0.0     0.1     0.1     0.1     0.1     0.3     0.1     0.1     0.0     0.0     0.0     0.7     0.8     0.6     0.6     1.9     1.1     0.7     0.0     0.0     0.0     0.1     0.1     0.1     0.1     0.3     0.1     0.0
 1974 357    53    0.09    0.48    0.08    1.32    30.4   0.184   0.030   1.131   0.156     2.3    11.5     1.4    10.1      68    1.22    0.07    8.86    1.02     0.0     0.0     0.6     1.4     1.4     0.9     0.8     3.0     1.2     0.7      0.      0.      7.     19.     15.      3.      3.     10.      5.      6.     0.0     0.0     0.0     0.2     0.2     0.1     0.1     0.4     0.1     0.1     0.0     0.0     0.5     1.3     1.3     0.8     0.7     2.6     1.0     0.7     0.0     0.0     0.1     0.1     0.2     0.1     0.1     0.3     0.1     0.0
 1974 358    54    0.10    0.49    0.08    1.33    30.5   0.186   0.030   1.140   0.157     2.7    13.0     1.5    11.0      69    1.27    0.07    9.71    1.04     0.0     0.3     0.6     1.8     2.0     1.3     1.1     1.9     1.2     0.7      0.      0.      6.     19.     15.      3.      3.     10.      6.      6.     0.0     0.0     0.0     0.2     0.3     0.2     0.2     0.3     0.1     0.1     0.0     0.3     0.6     1.7     1.7     1.1     0.9     1.6     1.1     0.7     0.0     0.0     0.1     0.1     0.2     0.1     0.1     0.2     0.1     0.0
 1974 359    55    0.10    0.51    0.09    1.34    30.5   0.187   0.031   1.152   0.159     2.7    13.1     1.5    13.3      67    1.60    0.07   11.67    1.27     0.0     0.2     0.6     2.0     2.4     1.6     1.4     3.2     1.1     0.7      0.      0.      6.     18.     15.      3.      3.     10.      6.      6.     0.0     0.0     0.0     0.2     0.3     0.2     0.2     0.5     0.1     0.1     0.0     0.2     0.6     1.8     2.1     1.4     1.2     2.7     1.0     0.7     0.0     0.0     0.1     0.1     0.2     0.2     0.2     0.4     0.1     0.0
 1974 360    56    0.10    0.52    0.09    1.36    30.6   0.189   0.031   1.167   0.160     2.3    11.4     1.3    16.7      59    1.91    0.06   14.74    1.43     0.0     0.6     1.1     3.0     3.4     2.2     1.8     2.4     1.4     0.8      0.      0.      5.     16.     13.      2.      3.      9.      5.      6.     0.0     0.0     0.1     0.3     0.4     0.3     0.3     0.4     0.2     0.1     0.0     0.5     1.0     2.8     2.9     1.9     1.6     2.1     1.2     0.7     0.0     0.0     0.1     0.2     0.3     0.2     0.2     0.3     0.1     0.0
 1974 361    57    0.10    0.53    0.09    1.39    30.6   0.193   0.031   1.195   0.162     2.2    11.1     1.3    31.9      47    3.54    0.05   28.31    2.08     0.0     0.8     3.1     7.4     7.9     4.3     3.2     2.6     1.6     0.9      0.      0.      3.     10.     10.      2.      2.      9.      5.      6.     0.0     0.0     0.1     0.7     1.0     0.6     0.5     0.4     0.2     0.1     0.0     0.8     3.0     6.8     6.9     3.7     2.7     2.2     1.4     0.8     0.0     0.0     0.1     0.3     0.5     0.4     0.3     0.3     0.1     0.1
 1974 362    58    0.11    0.54    0.09    1.43    30.7   0.197   0.031   1.229   0.165     2.5    12.4     1.4    39.0      45    4.66    0.04   34.34    2.52     0.0     0.4     2.1     7.0    10.8     6.7     5.2     3.7     2.0     1.1      0.      0.      4.     10.      8.      2.      2.      8.      5.      6.     0.0     0.0     0.1     0.6     1.4     1.0     0.8     0.5     0.2     0.1     0.0     0.4     2.1     6.4     9.4     5.8     4.4     3.1     1.8     1.0     0.0     0.0     0.1     0.3     0.6     0.5     0.5     0.4     0.2     0.1
 1974 363    59    0.11    0.55    0.09    1.47    30.7   0.202   0.031   1.266   0.168     2.6    13.2     1.5    41.6      45    5.12    0.04   36.45    2.76     0.0     0.2     1.4     6.3    10.1     7.7     6.8     4.9     2.7     1.4      0.      0.      4.     10.      8.      1.      2.      8.      5.      6.     0.0     0.0     0.1     0.5     1.3     1.1     1.1     0.7     0.3     0.1     0.0     0.2     1.3     5.8     8.9     6.6     5.7     4.2     2.4     1.3     0.0     0.0     0.0     0.2     0.6     0.5     0.5     0.5     0.2     0.1
 1974 364    60    0.11    0.57    0.09    1.51    30.8   0.208   0.031   1.303   0.170     2.7    13.7     1.6    41.9      48    5.24    0.05   36.64    2.91     0.0     0.1     0.9     5.0     9.0     7.8     7.8     6.1     3.5     1.8      0.      0.      5.     12.      9.      1.      2.      8.      5.      6.     0.0     0.0     0.0     0.4     1.1     1.1     1.2     0.9     0.4     0.1     0.0     0.1     0.8     4.6     7.9     6.7     6.6     5.2     3.1     1.7     0.0     0.0     0.0     0.2     0.5     0.5     0.6     0.6     0.3     0.1
 1974 365    61    0.11    0.58    0.09    1.53    30.8   0.210   0.031   1.319   0.172     2.8    14.3     1.6    19.2      53    2.35    0.05   16.86    1.62     0.0     0.0     0.4     2.3     4.1     3.6     3.6     2.8     1.6     0.9      0.      0.      5.     14.     11.      2.      2.      8.      5.      6.     0.0     0.0     0.0     0.2     0.5     0.5     0.5     0.4     0.2     0.1     0.0     0.0     0.4     2.1     3.6     3.1     3.1     2.4     1.4     0.8     0.0     0.0     0.0     0.1     0.3     0.3     0.3     0.3     0.1     0.1
 1975 001    62    0.12    0.60    0.10    1.54    30.9   0.211   0.031   1.329   0.173     2.8    14.4     1.6    11.5      53    1.40    0.05   10.08    1.10     0.0     0.0     0.2     1.0     1.9     1.7     1.7     2.6     1.6     0.8      0.      0.      5.     14.     11.      2.      2.      8.      5.      6.     0.0     0.0     0.0     0.1     0.2     0.2     0.3     0.4     0.2     0.1     0.0     0.0     0.2     1.0     1.7     1.5     1.4     2.2     1.4     0.8     0.0     0.0     0.0     0.1     0.2     0.2     0.2     0.3     0.1     0.1
 1975 002    63    0.12    0.61    0.10    1.55    30.9   0.213   0.031   1.339   0.174     2.3    11.9     1.3    10.4      49    1.25    0.05    9.17    0.99     0.0     0.0     0.2     0.9     1.6     1.5     1.7     2.1     1.5     0.9      0.      0.      5.     13.     10.      1.      2.      7.      5.      6.     0.0     0.0     0.0     0.1     0.2     0.2     0.2     0.3     0.2     0.1     0.0     0.0     0.2     0.9     1.4     1.3     1.4     1.8     1.3     0.8     0.0     0.0     0.0     0.1     0.1     0.2     0.2     0.2     0.1     0.1
 1975 003    64    0.12    0.62    0.10    1.56    31.0   0.214   0.031   1.345   0.175     2.6    13.6     1.5     7.0      48    0.85    0.05    6.19    0.71     0.0     0.0     0.1     0.4     0.7     0.7     0.8     2.0     1.4     0.9      0.      0.      4.     12.     10.      1.      2.      7.      5.      6.     0.0     0.0     0.0     0.0     0.1     0.1     0.1     0.3     0.2     0.1     0.0     0.0     0.1     0.4     0.7     0.6     0.7     1.7     1.3     0.8     0.0     0.0     0.0     0.0     0.1     0.1     0.1     0.2     0.1     0.1
 1975 004    65    0.12    0.64    0.10    1.56    31.0   0.214   0.031   1.351   0.176     2.8    14.5     1.6     6.5      44    0.78    0.04    5.69    0.66     0.0     0.0     0.1     0.3     0.7     0.7     0.7     1.8     1.4     0.8      0.      0.      4.     11.      9.      1.      2.      6.      5.      6.     0.0     0.0     0.0     0.0     0.1     0.1     0.1     0.3     0.2     0.1     0.0     0.0     0.1     0.3     0.6     0.6     0.6     1.6     1.2     0.8     0.0     0.0     0.0     0.0     0.1     0.1     0.1     0.2     0.1     0.1
 1975 005    66    0.13    0.65    0.10    1.57    31.1   0.215   0.031   1.356   0.176     2.8    14.8     1.6     5.9      43    0.71    0.04    5.18    0.61     0.0     0.0     0.0     0.3     0.6     0.6     0.7     1.7     1.3     0.8      0.      0.      4.     11.      9.      1.      2.      6.      5.      6.     0.0     0.0     0.0     0.0     0.1     0.1     0.1     0.3     0.2     0.1     0.0     0.0     0.0     0.3     0.5     0.5     0.6     1.4     1.1     0.7     0.0     0.0     0.0     0.0     0.1     0.1     0.1     0.2     0.1     0.1
 1975 006    67    0.13    0.67    0.10    1.58    31.1   0.216   0.031   1.361   0.177     2.8    15.0     1.6     5.5      42    0.67    0.04    4.87    0.58     0.0     0.0     0.0     0.2     0.5     0.6     0.6     1.6     1.2     0.7      0.      0.      4.     10.      9.      1.      2.      6.      5.      6.     0.0     0.0     0.0     0.0     0.1     0.1     0.1     0.2     0.1     0.1     0.0     0.0     0.0     0.2     0.5     0.5     0.5     1.4     1.1     0.7     0.0     0.0     0.0     0.0     0.1     0.1     0.1     0.2     0.1     0.1
 1975 007    68    0.13    0.68    0.11    1.58    31.1   0.217   0.031   1.367   0.177     2.1    11.1     1.2     6.9      42    0.82    0.04    6.07    0.69     0.0     0.1     0.2     0.5     0.7     0.6     0.6     2.3     1.2     0.7      0.      0.      4.     10.      9.      1.      2.      6.      5.      6.     0.0     0.0     0.0     0.0     0.1     0.1     0.1     0.3     0.1     0.1     0.0     0.1     0.2     0.5     0.6     0.5     0.5     1.9     1.1     0.7     0.0     0.0     0.0     0.0     0.1     0.1     0.1     0.3     0.1     0.1
 1975 008    69    0.13    0.69    0.11    1.59    31.2   0.218   0.031   1.374   0.178     2.4    13.0     1.4     8.1      40    0.96    0.04    7.11    0.79     0.0     0.0     0.2     0.8     0.9     0.7     0.7     2.9     1.2     0.7      0.      0.      3.     10.      8.      1.      1.      6.      5.      6.     0.0     0.0     0.0     0.1     0.1     0.1     0.1     0.4     0.1     0.1     0.0     0.0     0.2     0.7     0.8     0.6     0.6     2.4     1.0     0.6     0.0     0.0     0.0     0.0     0.1     0.1     0.1     0.3     0.1     0.0
 1975 009    70    0.14    0.70    0.11    1.60    31.2   0.218   0.031   1.380   0.179     2.7    14.6     1.6     7.3      40    0.90    0.04    6.36    0.74     0.0     0.0     0.1     0.3     0.9     0.7     0.7     2.8     1.1     0.7      0.      0.      3.     10.      8.      1.      1.      6.      5.      6.     0.0     0.0     0.0     0.0     0.1     0.1     0.1     0.4     0.1     0.1     0.0     0.0     0.1     0.3     0.8     0.6     0.6     2.4     1.0     0.6     0.0     0.0     0.0     0.0     0.1     0.1     0.1     0.3     0.1     0.0
 1975 010    71    0.14    0.72    0.11    1.61    31.3   0.219   0.031   1.387   0.180     2.8    15.3     1.6     7.3      41    0.90    0.04    6.41    0.74     0.0     0.0     0.1     0.3     0.9     0.7     0.7     2.8     1.1     0.7      0.      0.      3.     10.      8.      1.      1.      6.      5.      6.     0.0     0.0     0.0     0.0     0.1     0.1     0.1     0.4     0.1     0.1     0.0     0.0     0.1     0.3     0.8     0.6     0.6     2.4     1.0     0.6     0.0     0.0     0.0     0.0     0.1     0.1     0.1     0.3     0.1     0.0
 1975 011    72    0.14    0.74    0.11    1.61    31.3   0.220   0.031   1.393   0.180     2.8    15.3     1.6     7.2      42    0.83    0.04    6.37    0.69     0.0     0.0     0.1     0.4     0.8     0.7     0.7     1.8     1.2     1.5      0.      0.      4.     10.      8.      1.      1.      6.      5.      6.     0.0     0.0     0.0     0.0     0.1     0.1     0.1     0.3     0.1     0.1     0.0     0.0     0.1     0.4     0.7     0.6     0.6     1.5     1.1     1.4     0.0     0.0     0.0     0.0     0.1     0.1     0.1     0.2     0.1     0.1
 1975 012    73    0.15    0.75    0.11    1.62    31.3   0.221   0.031   1.399   0.181     2.8    15.3     1.6     6.9      42    0.79    0.04    6.10    0.67     0.0     0.0     0.1     0.4     0.7     0.6     0.7     1.7     1.2     1.5      0.      0.      4.     10.      8.      1.      1.      6.      5.      6.     0.0     0.0     0.0     0.0     0.1     0.1     0.1     0.3     0.1     0.1     0.0     0.0     0.1     0.3     0.6     0.6     0.6     1.5     1.0     1.4     0.0     0.0     0.0     0.0     0.1     0.1     0.1     0.2     0.1     0.1
 1975 013    74    0.15    0.76    0.11    1.63    31.4   0.222   0.031   1.408   0.182     2.0    11.2     1.2     9.8      41    1.09    0.04    8.72    0.88     0.0     0.1     0.4     1.1     1.2     0.9     0.9     2.6     1.2     1.5      0.      0.      3.      9.      8.      1.      1.      6.      5.      6.     0.0     0.0     0.0     0.1     0.1     0.1     0.1     0.4     0.1     0.1     0.0     0.1     0.4     1.0     1.1     0.8     0.7     2.2     1.0     1.4     0.0     0.0     0.0     0.1     0.1     0.1     0.1     0.3     0.1     0.1
 1975 014    75    0.15    0.78    0.12    1.64    31.4   0.223   0.031   1.415   0.183     2.4    13.7     1.4     7.8      40    0.91    0.04    6.86    0.75     0.0     0.0     0.2     0.5     0.5     0.8     0.8     2.4     1.1     1.5      0.      0.      4.      9.      8.      1.      1.      6.      5.      6.     0.0     0.0     0.0     0.0     0.1     0.1     0.1     0.4     0.1     0.1     0.0     0.0     0.2     0.4     0.5     0.7     0.7     2.1     1.0     1.3     0.0     0.0     0.0     0.0     0.0     0.1     0.1     0.3     0.1     0.1
 1975 015    76    0.15    0.79    0.12    1.65    31.5   0.224   0.031   1.423   0.183     2.1    12.0     1.3     9.0      40    1.00    0.04    8.03    0.81     0.0     0.0     0.3     0.9     0.9     0.8     0.9     1.6     2.3     1.4      0.      0.      4.      8.      8.      1.      1.      6.      5.      6.     0.0     0.0     0.0     0.1     0.1     0.1     0.1     0.2     0.3     0.1     0.0     0.0     0.2     0.8     0.8     0.7     0.7     1.3     2.0     1.3     0.0     0.0     0.0     0.0     0.1     0.1     0.1     0.2     0.2     0.1
 1975 016    77    0.15    0.80    0.12    1.66    31.5   0.225   0.031   1.433   0.185     2.1    11.9     1.2    12.1      38    1.33    0.04   10.76    1.03     0.0     0.0     0.5     1.6     1.7     1.2     1.1     2.6     2.2     1.4      0.      0.      4.      8.      7.      1.      1.      6.      5.      6.     0.0     0.0     0.0     0.1     0.2     0.2     0.2     0.4     0.3     0.1     0.0     0.0     0.4     1.5     1.5     1.0     0.9     2.2     1.9     1.3     0.0     0.0     0.0     0.1     0.1     0.1     0.1     0.3     0.2     0.1
 1975 017    78    0.16    0.81    0.12    1.67    31.5   0.227   0.032   1.446   0.186     2.1    11.6     1.2    14.3      35    1.51    0.03   12.75    1.11     0.0     0.0     0.6     2.4     2.8     1.9     1.6     1.9     1.7     1.2      0.      0.      3.      6.      6.      1.      1.      6.      5.      6.     0.0     0.0     0.0     0.2     0.3     0.2     0.2     0.3     0.2     0.1     0.0     0.0     0.6     2.2     2.5     1.6     1.4     1.7     1.5     1.1     0.0     0.0     0.0     0.1     0.2     0.2     0.2     0.2     0.2     0.1
 1975 018    79    0.16    0.82    0.12    1.69    31.6   0.229   0.032   1.462   0.187     2.0    11.4     1.2    17.8      32    1.88    0.03   15.90    1.28     0.0     0.0     0.7     3.1     4.0     2.8     2.4     2.1     1.6     1.1      0.      0.      3.      5.      5.      1.      1.      6.      5.      6.     0.0     0.0     0.0     0.2     0.4     0.4     0.3     0.3     0.2     0.1     0.0     0.0     0.7     2.9     3.6     2.4     2.0     1.8     1.4     1.0     0.0     0.0     0.0     0.1     0.2     0.2     0.2     0.2     0.1     0.1
 1975 019    80    0.16    0.83    0.12    1.72    31.6   0.232   0.032   1.486   0.189     1.9    10.9     1.1    27.2      27    2.90    0.03   24.28    1.69     0.0     0.0     1.2     4.2     7.0     4.7     3.9     3.0     1.9     1.2      0.      0.      2.      4.      4.      1.      1.      5.      5.      6.     0.0     0.0     0.0     0.3     0.7     0.6     0.6     0.4     0.2     0.1     0.0     0.0     1.2     3.9     6.3     4.1     3.4     2.6     1.7     1.1     0.0     0.0     0.0     0.1     0.3     0.3     0.3     0.3     0.2     0.1
 1975 020    81    0.16    0.84    0.12    1.75    31.6   0.236   0.032   1.516   0.191     1.9    10.8     1.1    33.9      24    4.28    0.02   29.58    2.29     0.0     0.0     0.0     0.0     6.6     6.7     8.1     7.2     3.6     1.8      0.      0.      2.      4.      3.      0.      1.      4.      4.      5.     0.0     0.0     0.0     0.0     0.6     0.8     1.2     1.1     0.4     0.1     0.0     0.0     0.0     0.0     6.0     5.8     6.9     6.1     3.2     1.6     0.0     0.0     0.0     0.0     0.3     0.4     0.5     0.7     0.3     0.1
 1975 021    82    0.16    0.85    0.12    1.79    31.6   0.241   0.032   1.550   0.193     1.8    10.2     1.1    39.8      20    5.42    0.02   34.38    2.61     0.0     0.0     0.0     0.0     0.0     0.0     0.0    24.2    11.0     4.5      0.      0.      2.      3.      3.      0.      1.      3.      3.      5.     0.0     0.0     0.0     0.0     0.0     0.0     0.0     3.7     1.4     0.4     0.0     0.0     0.0     0.0     0.0     0.0     0.0    20.5     9.7     4.2     0.0     0.0     0.0     0.0     0.0     0.0     0.0     1.6     0.7     0.2
 1975 022    83    0.17    0.86    0.13    1.83    31.7   0.247   0.032   1.587   0.196     1.7    10.1     1.0    42.4      19    5.57    0.02   36.79    2.72     0.0     0.0     0.0     0.0     0.0     0.0     0.0    21.3    14.0     7.0      0.      0.      1.      3.      3.      0.      1.      3.      3.      4.     0.0     0.0     0.0     0.0     0.0     0.0     0.0     3.2     1.8     0.6     0.0     0.0     0.0     0.0     0.0     0.0     0.0    18.1    12.2     6.4     0.0     0.0     0.0     0.0     0.0     0.0     0.0     1.5     0.9     0.3
 1975 023    84    0.17    0.87    0.13    1.87    31.7   0.252   0.032   1.622   0.199     1.6     9.5     1.0    39.6      19    5.06    0.02   34.55    2.61     0.0     0.0     0.0     0.0     0.0     0.0     0.0    17.1    14.0     8.5      0.      0.      2.      3.      3.      0.      1.      3.      3.      4.     0.0     0.0     0.0     0.0     0.0     0.0     0.0     2.5     1.8     0.8     0.0     0.0     0.0     0.0     0.0     0.0     0.0    14.6    12.2     7.7     0.0     0.0     0.0     0.0     0.0     0.0     0.0     1.3     0.9     0.4
 1975 024    85    0.17    0.88    0.13    1.91    31.7   0.256   0.032   1.652   0.201     1.8    10.2     1.0    35.0      20    4.38    0.02   30.64    2.40     0.0     0.0     0.0     0.0     0.0     0.0     0.0    13.6    12.6     8.8      0.      0.      2.      3.      3.      0.      1.      3.      3.      4.     0.0     0.0     0.0     0.0     0.0     0.0     0.0     2.0     1.6     0.8     0.0     0.0     0.0     0.0     0.0     0.0     0.0    11.6    11.0     8.0     0.0     0.0     0.0     0.0     0.0     0.0     0.0     1.1     0.9     0.4
 1975 025    86    0.17    0.89    0.13    1.94    31.7   0.260   0.032   1.681   0.204     1.6     9.5     1.0    32.9      20    4.10    0.02   28.80    2.32     0.0     0.0     0.0     0.0     0.0     0.0     0.0    12.7    11.6     8.6      0.      0.      2.      4.      3.      0.      1.      4.      3.      4.     0.0     0.0     0.0     0.0     0.0     0.0     0.0     1.9     1.5     0.8     0.0     0.0     0.0     0.0     0.0     0.0     0.0    10.8    10.1     7.8     0.0     0.0     0.0     0.0     0.0     0.0     0.0     1.1     0.8     0.4
 1975 026    87    0.17    0.90    0.13    1.97    31.7   0.264   0.032   1.707   0.206     1.7     9.8     1.0    29.7      22    3.68    0.02   26.07    2.17     0.0     0.0     0.0     0.0     0.0     0.0     0.0    11.1    10.5     8.1      0.      0.      2.      4.      3.      0.      1.      4.      4.      4.     0.0     0.0     0.0     0.0     0.0     0.0     0.0     1.6     1.3     0.8     0.0     0.0     0.0     0.0     0.0     0.0     0.0     9.5     9.2     7.4     0.0     0.0     0.0     0.0     0.0     0.0     0.0     1.0     0.8     0.4
 1975 027    88    0.17    0.91    0.13    2.02    31.8   0.270   0.032   1.749   0.209     1.6     9.3     1.0    47.6      20    6.06    0.02   41.52    3.08     0.0     0.0     0.0     0.0     0.0     0.0     6.6    18.9    13.2     8.8      0.      0.      2.      4.      3.      0.      1.      3.      3.      4.     0.0     0.0     0.0     0.0     0.0     0.0     0.8     2.8     1.7     0.8     0.0     0.0     0.0     0.0     0.0     0.0     5.8    16.2    11.5     8.0     0.0     0.0     0.0     0.0     0.0     0.0     0.3     1.4     0.9     0.5
 1975 028    89    0.18    0.92    0.13    2.07    31.8   0.277   0.032   1.798   0.212     1.5     8.8     0.9    55.8      19    6.56    0.02   49.20    3.28     0.0     0.0     0.0     0.0     3.7     4.5     6.3    17.6    14.1     9.5      0.      0.      1.      3.      3.      0.      1.      3.      3.      4.     0.0     0.0     0.0     0.0     0.2     0.4     0.7     2.5     1.8     0.9     0.0     0.0     0.0     0.0     3.5     4.1     5.6    15.0    12.3     8.6     0.0     0.0     0.0     0.0     0.1     0.2     0.3     1.3     0.9     0.5
 1975 029    90    0.18    0.93    0.13    2.14    31.8   0.284   0.032   1.856   0.216     1.4     8.6     0.9    66.3      18    7.75    0.02   58.55    3.57     0.0     0.0     0.4     1.4     3.3     4.1     5.9    22.9    17.2    11.2      0.      0.      1.      3.      3.      0.      1.      3.      3.      4.     0.0     0.0     0.0     0.0     0.2     0.3     0.6     3.3     2.2     1.1     0.0     0.0     0.4     1.4     3.1     3.8     5.2    19.7    14.9    10.1     0.0     0.0     0.0     0.0     0.1     0.1     0.3     1.4     1.1     0.6
 1975 030    91    0.18    0.94    0.13    2.20    31.8   0.291   0.032   1.909   0.219     1.4     8.6     0.9    59.3      18    6.75    0.02   52.59    3.28     0.0     0.0     0.3     1.3     3.0     3.9     5.6    17.3    16.3    11.7      0.      0.      2.      3.      3.      0.      1.      3.      3.      4.     0.0     0.0     0.0     0.0     0.1     0.3     0.6     2.4     2.1     1.2     0.0     0.0     0.3     1.2     2.9     3.6     5.0    14.9    14.2    10.6     0.0     0.0     0.0     0.0     0.1     0.1     0.3     1.2     1.0     0.6
 1975 031    92    0.18    0.95    0.13    2.25    31.8   0.297   0.032   1.955   0.222     1.5     8.9     0.9    51.3      19    5.67    0.02   45.64    2.94     0.0     0.0     0.2     1.2     2.8     3.7     5.4    12.9    13.9    11.2      0.      0.      2.      3.      3.      0.      1.      3.      3.      4.     0.0     0.0     0.0     0.0     0.1     0.3     0.6     1.8     1.8     1.1     0.0     0.0     0.2     1.1     2.7     3.4     4.9    11.1    12.1    10.1     0.0     0.0     0.0     0.0     0.1     0.1     0.2     1.0     0.9     0.6
 1975 032    93    0.18    0.96    0.13    2.30    31.9   0.302   0.032   1.996   0.225     1.5     8.8     0.9    46.6      21    5.01    0.02   41.56    2.72     0.0     0.0     0.2     1.2     2.8     3.7     5.5    10.8    12.1    10.4      0.      0.      2.      3.      3.      0.      1.      4.      3.      4.     0.0     0.0     0.0     0.0     0.1     0.3     0.6     1.5     1.6     1.1     0.0     0.0     0.2     1.1     2.7     3.4     5.0     9.3    10.5     9.4     0.0     0.0     0.0     0.0     0.0     0.1     0.2     0.9     0.9     0.6
 1975 033    94    0.18    0.97    0.14    2.34    31.9   0.306   0.032   2.033   0.227     1.7    10.4     1.0    41.4      22    4.36    0.02   36.99    2.48     0.0     0.0     0.1     1.1     2.6     3.5     5.4     9.1    10.3     9.2      0.      0.      2.      4.      3.      0.      1.      4.      4.      5.     0.0     0.0     0.0     0.0     0.1     0.2     0.5     1.2     1.3     0.9     0.0     0.0     0.1     1.0     2.5     3.3     4.8     7.9     8.9     8.3     0.0     0.0     0.0     0.0     0.0     0.1     0.2     0.8     0.8     0.5
 1975 034    95    0.18    0.98    0.14    2.38    31.9   0.310   0.032   2.066   0.229     1.8    11.1     1.1    36.6      24    3.83    0.02   32.76    2.26     0.0     0.0     0.1     0.9     2.3     3.2     5.1     8.1     8.9     8.1      0.      0.      2.      4.      4.      0.      1.      4.      4.      5.     0.0     0.0     0.0     0.0     0.1     0.2     0.5     1.1     1.1     0.8     0.0     0.0     0.1     0.8     2.2     3.0     4.6     7.0     7.7     7.2     0.0     0.0     0.0     0.0     0.0     0.1     0.2     0.7     0.7     0.5
 1975 035    96    0.19    0.99    0.14    2.39    31.9   0.312   0.032   2.082   0.231     2.0    12.0     1.2    17.5      28    1.80    0.03   15.69    1.27     0.0     0.0     0.0     0.4     1.0     1.5     2.3     3.9     4.3     4.0      0.      0.      3.      5.      5.      1.      1.      4.      4.      5.     0.0     0.0     0.0     0.0     0.0     0.1     0.2     0.5     0.6     0.4     0.0     0.0     0.0     0.4     1.0     1.4     2.1     3.4     3.8     3.6     0.0     0.0     0.0     0.0     0.0     0.1     0.1     0.4     0.4     0.3
 1975 036    97    0.19    1.00    0.14    2.40    32.0   0.313   0.032   2.089   0.231     2.0    12.4     1.2     8.3      28    0.85    0.03    7.46    0.67     0.0     0.0     0.0     0.2     0.5     0.7     1.1     1.8     2.1     2.0      0.      0.      3.      5.      5.      1.      1.      4.      4.      5.     0.0     0.0     0.0     0.0     0.0     0.0     0.1     0.2     0.3     0.2     0.0     0.0     0.0     0.2     0.5     0.6     1.0     1.6     1.8     1.8     0.0     0.0     0.0     0.0     0.0     0.0     0.1     0.2     0.2     0.2
 1975 037    98    0.19    1.01    0.14    2.41    32.0   0.313   0.032   2.095   0.232     2.0    12.7     1.3     6.4      26    0.70    0.03    5.67    0.57     0.0     0.0     0.0     0.0     0.2     0.3     0.5     1.6     1.9     1.8      0.      0.      3.      5.      4.      1.      1.      4.      4.      5.     0.0     0.0     0.0     0.0     0.0     0.0     0.0     0.2     0.2     0.2     0.0     0.0     0.0     0.0     0.2     0.3     0.4     1.4     1.7     1.7     0.0     0.0     0.0     0.0     0.0     0.0     0.0     0.2     0.2     0.1
 1975 038    99    0.19    1.03    0.14    2.41    32.0   0.314   0.032   2.099   0.232     2.0    12.8     1.3     5.0      25    0.60    0.02    4.45    0.49     0.0     0.0     0.0     0.0     0.0     0.0     0.0     1.5     1.8     1.8      0.      0.      2.      4.      4.      1.      1.      4.      4.      5.     0.0     0.0     0.0     0.0     0.0     0.0     0.0     0.2     0.2     0.2     0.0     0.0     0.0     0.0     0.0     0.0     0.0     1.3     1.6     1.6     0.0     0.0     0.0     0.0     0.0     0.0     0.0     0.2     0.2     0.1
 1975 039   100    0.20    1.04    0.14    2.42    32.0   0.315   0.032   2.103   0.233     2.1    12.9     1.3     4.6      24    0.54    0.02    4.05    0.45     0.0     0.0     0.0     0.0     0.0     0.0     0.0     1.3     1.6     1.6      0.      0.      2.      4.      4.      1.      1.      4.      4.      5.     0.0     0.0     0.0     0.0     0.0     0.0     0.0     0.2     0.2     0.2     0.0     0.0     0.0     0.0     0.0     0.0     0.0     1.1     1.4     1.5     0.0     0.0     0.0     0.0     0.0     0.0     0.0     0.1     0.2     0.1
 1975 040   101    0.20    1.05    0.14    2.42    32.1   0.315   0.032   2.106   0.233     2.1    13.1     1.3     3.1      24    0.35    0.02    2.71    0.30     0.0     0.0     0.0     0.0     0.0     0.0     0.0     0.0     1.5     1.6      0.      0.      3.      4.      4.      1.      1.      3.      4.      5.     0.0     0.0     0.0     0.0     0.0     0.0     0.0     0.0     0.2     0.2     0.0     0.0     0.0     0.0     0.0     0.0     0.0     0.0     1.3     1.4     0.0     0.0     0.0     0.0     0.0     0.0     0.0     0.0     0.2     0.1
 1975 041   102    0.20    1.07    0.15    2.42    32.1   0.315   0.032   2.108   0.233     2.1    13.1     1.3     2.7      30    0.31    0.03    2.42    0.27     0.0     0.0     0.0     0.0     0.0     0.0     0.0     0.0     1.3     1.4      0.      0.      3.     11.      4.      1.      1.      3.      3.      5.     0.0     0.0     0.0     0.0     0.0     0.0     0.0     0.0     0.2     0.1     0.0     0.0     0.0     0.0     0.0     0.0     0.0     0.0     1.1     1.3     0.0     0.0     0.0     0.0     0.0     0.0     0.0     0.0     0.1     0.1
 1975 042   103    0.20    1.08    0.15    2.43    32.1   0.315   0.032   2.111   0.234     1.7    11.1     1.1     2.6      27    0.30    0.03    2.33    0.26     0.0     0.0     0.0     0.0     0.0     0.0     0.0     0.0     1.3     1.4      0.      0.      2.     10.      4.      1.      1.      3.      3.      4.     0.0     0.0     0.0     0.0     0.0     0.0     0.0     0.0     0.2     0.1     0.0     0.0     0.0     0.0     0.0     0.0     0.0     0.0     1.1     1.2     0.0     0.0     0.0     0.0     0.0     0.0     0.0     0.0     0.1     0.1
 1975 043   104    0.20    1.09    0.15    2.43    32.1   0.316   0.032   2.113   0.234     1.5     9.8     0.9     2.6      20    0.30    0.02    2.30    0.25     0.0     0.0     0.0     0.0     0.0     0.0     0.0     0.0     1.2     1.4      0.      0.      1.      3.      3.      1.      1.      3.      3.      4.     0.0     0.0     0.0     0.0     0.0     0.0     0.0     0.0     0.2     0.1     0.0     0.0     0.0     0.0     0.0     0.0     0.0     0.0     1.1     1.2     0.0     0.0     0.0     0.0     0.0     0.0     0.0     0.0     0.1     0.1
 1975 044   105    0.20    1.10    0.15    2.43    32.2   0.316   0.032   2.115   0.234     1.5    10.0     1.0     2.5      19    0.29    0.02    2.24    0.24     0.0     0.0     0.0     0.0     0.0     0.0     0.0     0.0     1.2     1.3      0.      0.      1.      3.      3.      1.      1.      3.      3.      4.     0.0     0.0     0.0     0.0     0.0     0.0     0.0     0.0     0.2     0.1     0.0     0.0     0.0     0.0     0.0     0.0     0.0     0.0     1.0     1.2     0.0     0.0     0.0     0.0     0.0     0.0     0.0     0.0     0.1     0.1
 1975 045   106    0.21    1.11    0.15    2.43    32.2   0.316   0.032   2.117   0.234     1.6    10.6     1.0     2.4      19    0.27    0.02    2.11    0.23     0.0     0.0     0.0     0.0     0.0     0.0     0.0     0.0     1.2     1.1      0.      0.      1.      3.      3.      1.      1.      3.      3.      5.     0.0     0.0     0.0     0.0     0.0     0.0     0.0     0.0     0.2     0.1     0.0     0.0     0.0     0.0     0.0     0.0     0.0     0.0     1.1     1.0     0.0     0.0     0.0     0.0     0.0     0.0     0.0     0.0     0.1     0.1
 1975 046   107    0.21    1.12    0.15    2.44    32.2   0.317   0.032   2.120   0.235     1.5     9.9     0.9     3.0      16    0.35    0.02    2.69    0.29     0.0     0.0     0.0     0.0     0.0     0.0     0.0     0.0     1.8     1.3      0.      0.      1.      2.      2.      0.      1.      3.      3.      4.     0.0     0.0     0.0     0.0     0.0     0.0     0.0     0.0     0.2     0.1     0.0     0.0     0.0     0.0     0.0     0.0     0.0     0.0     1.6     1.1     0.0     0.0     0.0     0.0     0.0     0.0     0.0     0.0     0.2     0.1
 1975 047   108    0.21    1.13    0.15    2.44    32.2   0.317   0.032   2.124   0.235     1.7    11.1     1.0     4.8      16    0.57    0.02    4.26    0.44     0.0     0.0     0.0     0.0     0.0     0.0     0.0     0.0     3.0     1.8      0.      0.      1.      2.      2.      0.      0.      3.      3.      4.     0.0     0.0     0.0     0.0     0.0     0.0     0.0     0.0     0.4     0.2     0.0     0.0     0.0     0.0     0.0     0.0     0.0     0.0     2.6     1.6     0.0     0.0     0.0     0.0     0.0     0.0     0.0     0.0     0.3     0.1
 1975 048   109    0.21    1.14    0.15    2.46    32.2   0.319   0.032   2.138   0.236     1.7    11.1     1.0    15.7      15    1.76    0.02   13.99    1.17     0.0     0.0     0.0     0.0     0.0     0.0     3.9     5.3     4.1     2.5      0.      0.      1.      2.      2.      0.      0.      3.      3.      4.     0.0     0.0     0.0     0.0     0.0     0.0     0.3     0.7     0.5     0.3     0.0     0.0     0.0     0.0     0.0     0.0     3.6     4.6     3.5     2.3     0.0     0.0     0.0     0.0     0.0     0.0     0.1     0.5     0.4     0.2
 1975 049   110    0.21    1.15    0.15    2.47    32.2   0.321   0.032   2.150   0.237     1.4     9.5     0.9    13.7      15    1.66    0.01   12.04    1.15     0.0     0.0     0.0     0.0     0.0     0.0     0.0     5.7     4.8     3.2      0.      0.      1.      2.      2.      0.      0.      3.      3.      4.     0.0     0.0     0.0     0.0     0.0     0.0     0.0     0.7     0.6     0.3     0.0     0.0     0.0     0.0     0.0     0.0     0.0     5.0     4.2     2.9     0.0     0.0     0.0     0.0     0.0     0.0     0.0     0.5     0.4     0.2
 1975 050   111    0.21    1.16    0.15    2.49    32.2   0.323   0.032   2.164   0.239     1.4     9.3     0.9    15.7      14    1.90    0.01   13.84    1.28     0.0     0.0     0.0     0.0     0.0     0.0     0.0     6.3     5.5     3.9      0.      0.      1.      2.      2.      0.      0.      2.      3.      4.     0.0     0.0     0.0     0.0     0.0     0.0     0.0     0.8     0.7     0.4     0.0     0.0     0.0     0.0     0.0     0.0     0.0     5.6     4.8     3.5     0.0     0.0     0.0     0.0     0.0     0.0     0.0     0.5     0.5     0.3
 1975 051   112    0.21    1.17    0.16    2.50    32.3   0.325   0.032   2.179   0.240     1.6    10.9     1.0    16.8      14    2.02    0.01   14.80    1.35     0.0     0.0     0.0     0.0     0.0     0.0     0.0     6.5     6.0     4.4      0.      0.      1.      2.      2.      0.      0.      2.      3.      4.     0.0     0.0     0.0     0.0     0.0     0.0     0.0     0.8     0.8     0.5     0.0     0.0     0.0     0.0     0.0     0.0     0.0     5.7     5.2     3.9     0.0     0.0     0.0     0.0     0.0     0.0     0.0     0.5     0.5     0.3
 1975 052   113    0.22    1.18    0.16    2.51    32.3   0.325   0.032   2.186   0.241     1.8    12.2     1.1     7.6      16    0.90    0.02    6.73    0.69     0.0     0.0     0.0     0.0     0.0     0.0     0.0     2.8     2.7     2.1      0.      0.      1.      2.      2.      0.      1.      2.      3.      4.     0.0     0.0     0.0     0.0     0.0     0.0     0.0     0.3     0.3     0.2     0.0     0.0     0.0     0.0     0.0     0.0     0.0     2.5     2.4     1.8     0.0     0.0     0.0     0.0     0.0     0.0     0.0     0.3     0.3     0.2
 1975 053   114    0.22    1.19    0.16    2.51    32.3   0.326   0.032   2.188   0.241     1.8    12.5     1.1     3.1      17    0.36    0.02    2.74    0.30     0.0     0.0     0.0     0.0     0.0     0.0     0.0     1.1     1.1     0.9      0.      0.      1.      3.      3.      0.      1.      3.      3.      4.     0.0     0.0     0.0     0.0     0.0     0.0     0.0     0.1     0.1     0.1     0.0     0.0     0.0     0.0     0.0     0.0     0.0     1.0     1.0     0.8     0.0     0.0     0.0     0.0     0.0     0.0     0.0     0.1     0.1     0.1
 1975 054   115    0.22    1.21    0.16    2.52    32.3   0.326   0.032   2.192   0.241     1.9    12.6     1.1     3.5      16    0.40    0.02    3.12    0.33     0.0     0.0     0.0     0.0     0.0     0.0     0.0     0.9     0.9     1.7      0.      0.      1.      2.      3.      0.      1.      2.      3.      4.     0.0     0.0     0.0     0.0     0.0     0.0     0.0     0.1     0.1     0.2     0.0     0.0     0.0     0.0     0.0     0.0     0.0     0.8     0.8     1.5     0.0     0.0     0.0     0.0     0.0     0.0     0.0     0.1     0.1     0.1
 1975 055   116    0.22    1.22    0.16    2.52    32.3   0.327   0.032   2.195   0.242     1.9    12.7     1.2     3.8      16    0.43    0.02    3.34    0.35     0.0     0.0     0.0     0.0     0.0     0.0     0.0     1.5     0.7     1.5      0.      0.      1.      2.      3.      0.      1.      2.      3.      4.     0.0     0.0     0.0     0.0     0.0     0.0     0.0     0.2     0.1     0.2     0.0     0.0     0.0     0.0     0.0     0.0     0.0     1.3     0.6     1.4     0.0     0.0     0.0     0.0     0.0     0.0     0.0     0.1     0.1     0.1
 1975 056   117    0.22    1.23    0.16    2.52    32.3   0.327   0.032   2.198   0.242     1.9    12.9     1.2     3.3      21    0.37    0.02    2.92    0.31     0.0     0.0     0.0     0.0     0.0     0.0     0.0     1.5     0.4     1.3      0.      0.      1.      2.      8.      0.      1.      2.      3.      4.     0.0     0.0     0.0     0.0     0.0     0.0     0.0     0.2     0.1     0.1     0.0     0.0     0.0     0.0     0.0     0.0     0.0     1.3     0.4     1.2     0.0     0.0     0.0     0.0     0.0     0.0     0.0     0.1     0.0     0.1
 1975 057   118    0.23    1.25    0.16    2.53    32.4   0.327   0.032   2.199   0.242     1.9    13.0     1.2     1.7      19    0.19    0.02    1.48    0.17     0.0     0.0     0.0     0.0     0.0     0.0     0.0     0.0     0.4     1.3      0.      0.      1.      2.      7.      0.      1.      2.      3.      4.     0.0     0.0     0.0     0.0     0.0     0.0     0.0     0.0     0.1     0.1     0.0     0.0     0.0     0.0     0.0     0.0     0.0     0.0     0.3     1.1     0.0     0.0     0.0     0.0     0.0     0.0     0.0     0.0     0.0     0.1
 1975 058   119    0.23    1.26    0.16    2.53    32.4   0.327   0.032   2.200   0.242     1.9    13.2     1.2     1.2      23    0.13    0.02    1.10    0.13     0.0     0.0     0.0     0.0     0.0     0.0     0.0     0.0     0.1     1.1      0.      0.      1.      7.      6.      0.      1.      2.      3.      4.     0.0     0.0     0.0     0.0     0.0     0.0     0.0     0.0     0.0     0.1     0.0     0.0     0.0     0.0     0.0     0.0     0.0     0.0     0.1     1.0     0.0     0.0     0.0     0.0     0.0     0.0     0.0     0.0     0.0     0.1
 1975 059   120    0.23    1.27    0.16    2.53    32.4   0.327   0.032   2.201   0.242     1.9    13.4     1.2     0.8      28    0.09    0.03    0.76    0.10     0.0     0.0     0.0     0.0     0.0     0.0     0.0     0.0     0.0     0.8      0.      0.      1.      6.      6.      1.      2.      2.      7.      4.     0.0     0.0     0.0     0.0     0.0     0.0     0.0     0.0     0.0     0.1     0.0     0.0     0.0     0.0     0.0     0.0     0.0     0.0     0.0     0.8     0.0     0.0     0.0     0.0     0.0     0.0     0.0     0.0     0.0     0.1
 1975 060   121    0.23    1.29    0.17    2.53    32.4   0.328   0.032   2.202   0.242     2.0    13.6     1.2     0.6      26    0.07    0.03    0.56    0.08     0.0     0.0     0.0     0.0     0.0     0.0     0.0     0.0     0.0     0.6      0.      0.      1.      5.      5.      1.      1.      2.      7.      4.     0.0     0.0     0.0     0.0     0.0     0.0     0.0     0.0     0.0     0.1     0.0     0.0     0.0     0.0     0.0     0.0     0.0     0.0     0.0     0.6     0.0     0.0     0.0     0.0     0.0     0.0     0.0     0.0     0.0     0.1
 1975 061   122    0.23    1.30    0.17    2.53    32.5   0.328   0.032   2.202   0.243     2.0    13.7     1.2     0.5      24    0.06    0.02    0.46    0.07     0.0     0.0     0.0     0.0     0.0     0.0     0.0     0.0     0.0     0.5      0.      0.      1.      5.      5.      1.      1.      2.      6.      4.     0.0     0.0     0.0     0.0     0.0     0.0     0.0     0.0     0.0     0.1     0.0     0.0     0.0     0.0     0.0     0.0     0.0     0.0     0.0     0.5     0.0     0.0     0.0     0.0     0.0     0.0     0.0     0.0     0.0     0.0
 1975 062   123    0.24    1.31    0.17    2.53    32.5   0.328   0.032   2.203   0.243     1.6    10.9     1.0     0.4      28    0.05    0.03    0.38    0.06     0.0     0.0     0.0     0.0     0.0     0.0     0.0     0.0     0.0     0.4      0.      0.      1.      5.      4.      1.      1.      6.      6.      4.     0.0     0.0     0.0     0.0     0.0     0.0     0.0     0.0     0.0     0.0     0.0     0.0     0.0     0.0     0.0     0.0     0.0     0.0     0.0     0.4     0.0     0.0     0.0     0.0     0.0     0.0     0.0     0.0     0.0     0.0
 1975 063   124    0.24    1.32    0.17    2.53    32.5   0.328   0.033   2.203   0.243     1.9    12.9     1.1     0.3      28    0.03    0.03    0.29    0.05     0.0     0.0     0.0     0.0     0.0     0.0     0.0     0.0     0.0     0.3      0.      0.      1.      5.      4.      1.      1.      6.      6.      4.     0.0     0.0     0.0     0.0     0.0     0.0     0.0     0.0     0.0     0.0     0.0     0.0     0.0     0.0     0.0     0.0     0.0     0.0     0.0     0.3     0.0     0.0     0.0     0.0     0.0     0.0     0.0     0.0     0.0     0.0
 1975 064   125    0.24    1.33    0.17    2.53    32.5   0.328   0.033   2.203   0.243     1.6    11.0     1.0     0.2      25    0.02    0.02    0.15    0.04     0.0     0.0     0.0     0.0     0.0     0.0     0.0     0.0     0.0     0.2      0.      0.      1.      2.      4.      1.      1.      6.      6.      4.     0.0     0.0     0.0     0.0     0.0     0.0     0.0     0.0     0.0     0.0     0.0     0.0     0.0     0.0     0.0     0.0     0.0     0.0     0.0     0.2     0.0     0.0     0.0     0.0     0.0     0.0     0.0     0.0     0.0     0.0
 1975 065   126    0.24    1.35    0.17    2.53    32.6   0.328   0.033   2.203   0.243     1.8    12.6     1.1     0.1      22    0.01    0.02    0.11    0.03     0.0     0.0     0.0     0.0     0.0     0.0     0.0     0.0     0.0     0.1      0.      0.      1.      1.      1.      1.      1.      6.      6.      4.     0.0     0.0     0.0     0.0     0.0     0.0     0.0     0.0     0.0     0.0     0.0     0.0     0.0     0.0     0.0     0.0     0.0     0.0     0.0     0.1     0.0     0.0     0.0     0.0     0.0     0.0     0.0     0.0     0.0     0.0
 1975 066   127    0.24    1.36    0.17    2.53    32.6   0.328   0.033   2.203   0.243     1.5    10.5     0.9     0.0      22    0.01    0.02    0.04    0.02     0.0     0.0     0.0     0.0     0.0     0.0     0.0     0.0     0.0     0.0      0.      0.      1.      1.      1.      0.      1.      6.      6.      4.     0.0     0.0     0.0     0.0     0.0     0.0     0.0     0.0     0.0     0.0     0.0     0.0     0.0     0.0     0.0     0.0     0.0     0.0     0.0     0.0     0.0     0.0     0.0     0.0     0.0     0.0     0.0     0.0     0.0     0.0
 1975 067   128    0.24    1.37    0.17    2.53    32.6   0.328   0.033   2.203   0.243     1.5    10.4     0.9     0.0      24    0.00    0.02    0.03    0.02     0.0     0.0     0.0     0.0     0.0     0.0     0.0     0.0     0.0     0.0      0.      0.      1.      1.      1.      0.      0.      2.      6.     13.     0.0     0.0     0.0     0.0     0.0     0.0     0.0     0.0     0.0     0.0     0.0     0.0     0.0     0.0     0.0     0.0     0.0     0.0     0.0     0.0     0.0     0.0     0.0     0.0     0.0     0.0     0.0     0.0     0.0     0.0
 1975 068   129    0.25    1.38    0.17    2.53    32.6   0.328   0.033   2.204   0.243     1.5    10.1     0.9     0.9      11    0.01    0.01    0.89    0.01     0.0     0.0     0.2     0.7     0.0     0.0     0.0     0.0     0.0     0.0      0.      0.      1.      1.      1.      0.      0.      2.      2.      4.     0.0     0.0     0.0     0.0     0.0     0.0     0.0     0.0     0.0     0.0     0.0     0.0     0.2     0.7     0.0     0.0     0.0     0.0     0.0     0.0     0.0     0.0     0.0     0.0     0.0     0.0     0.0     0.0     0.0     0.0
 1975 069   130    0.25    1.39    0.17    2.53    32.6   0.328   0.033   2.206   0.243     1.5    10.2     0.9     1.8      11    0.02    0.01    1.76    0.02     0.0     0.0     0.2     0.6     1.0     0.0     0.0     0.0     0.0     0.0      0.      0.      1.      1.      1.      0.      0.      2.      2.      3.     0.0     0.0     0.0     0.0     0.0     0.0     0.0     0.0     0.0     0.0     0.0     0.0     0.2     0.6     1.0     0.0     0.0     0.0     0.0     0.0     0.0     0.0     0.0     0.0     0.0     0.0     0.0     0.0     0.0     0.0
 1975 070   131    0.25    1.40    0.18    2.54    32.6   0.328   0.033   2.209   0.243     1.7    11.9     1.0     2.9      11    0.05    0.01    2.82    0.03     0.0     0.0     0.1     0.6     1.0     1.2     0.0     0.0     0.0     0.0      0.      0.      1.      1.      1.      0.      0.      2.      2.      3.     0.0     0.0     0.0     0.0     0.0     0.0     0.0     0.0     0.0     0.0     0.0     0.0     0.1     0.6     0.9     1.2     0.0     0.0     0.0     0.0     0.0     0.0     0.0     0.0     0.0     0.0     0.0     0.0     0.0     0.0
 1975 071   132    0.25    1.41    0.18    2.55    32.7   0.329   0.033   2.219   0.243     1.4     9.9     0.9    11.2      10    0.87    0.01   10.34    0.51     0.0     0.0     0.0     0.0     0.9     1.1     2.1     7.1     0.0     0.0      0.      0.      1.      1.      1.      0.      0.      2.      2.      3.     0.0     0.0     0.0     0.0     0.0     0.0     0.1     0.7     0.0     0.0     0.0     0.0     0.0     0.0     0.9     1.1     2.0     6.3     0.0     0.0     0.0     0.0     0.0     0.0     0.0     0.0     0.0     0.4     0.0     0.0
 1975 072   133    0.25    1.42    0.18    2.57    32.7   0.331   0.033   2.239   0.245     1.4     9.6     0.8    22.4      10    2.54    0.01   19.86    1.56     0.0     0.0     0.0     0.0     0.0     0.0     0.0     7.1     8.3     6.9      0.      0.      1.      1.      1.      0.      0.      2.      2.      3.     0.0     0.0     0.0     0.0     0.0     0.0     0.0     0.7     1.0     0.8     0.0     0.0     0.0     0.0     0.0     0.0     0.0     6.4     7.3     6.2     0.0     0.0     0.0     0.0     0.0     0.0     0.0     0.4     0.6     0.5
 1975 073   134    0.25    1.43    0.18    2.60    32.7   0.334   0.033   2.263   0.247     1.3     9.4     0.8    27.0       9    3.04    0.01   23.98    1.75     0.0     0.0     0.0     0.0     0.0     0.0     0.0     9.2     9.9     7.9      0.      0.      1.      1.      1.      0.      0.      1.      2.      3.     0.0     0.0     0.0     0.0     0.0     0.0     0.0     0.9     1.2     0.9     0.0     0.0     0.0     0.0     0.0     0.0     0.0     8.3     8.6     7.1     0.0     0.0     0.0     0.0     0.0     0.0     0.0     0.5     0.7     0.5
 1975 074   135    0.25    1.44    0.18    2.62    32.7   0.336   0.033   2.279   0.248     1.4     9.9     0.8    18.3       9    2.17    0.01   16.14    1.26     0.0     0.0     0.0     0.0     0.0     0.0     0.0     0.0     9.8     8.5      0.      0.      1.      1.      1.      0.      0.      1.      1.      3.     0.0     0.0     0.0     0.0     0.0     0.0     0.0     0.0     1.2     1.0     0.0     0.0     0.0     0.0     0.0     0.0     0.0     0.0     8.6     7.5     0.0     0.0     0.0     0.0     0.0     0.0     0.0     0.0     0.7     0.6
 1975 075   136    0.26    1.45    0.18    2.63    32.7   0.338   0.033   2.294   0.249     1.4     9.9     0.8    17.1       9    2.02    0.01   15.11    1.20     0.0     0.0     0.0     0.0     0.0     0.0     0.0     0.0     8.8     8.3      0.      0.      1.      1.      1.      0.      0.      2.      1.      3.     0.0     0.0     0.0     0.0     0.0     0.0     0.0     0.0     1.1     0.9     0.0     0.0     0.0     0.0     0.0     0.0     0.0     0.0     7.7     7.4     0.0     0.0     0.0     0.0     0.0     0.0     0.0     0.0     0.6     0.6
 1975 076   137    0.26    1.46    0.18    2.65    32.7   0.340   0.033   2.307   0.250     1.7    12.0     1.0    15.2       9    1.78    0.01   13.38    1.09     0.0     0.0     0.0     0.0     0.0     0.0     0.0     0.0     7.5     7.6      0.      0.      1.      1.      1.      0.      0.      1.      1.      3.     0.0     0.0     0.0     0.0     0.0     0.0     0.0     0.0     0.9     0.9     0.0     0.0     0.0     0.0     0.0     0.0     0.0     0.0     6.6     6.8     0.0     0.0     0.0     0.0     0.0     0.0     0.0     0.0     0.6     0.5
 1975 077   138    0.26    1.48    0.18    2.65    32.7   0.341   0.033   2.311   0.250     2.0    14.0     1.2     3.5      10    0.39    0.01    3.10    0.29     0.0     0.0     0.0     0.0     0.0     0.0     0.0     0.0     0.0     3.5      0.      0.      1.      1.      1.      0.      0.      2.      1.      3.     0.0     0.0     0.0     0.0     0.0     0.0     0.0     0.0     0.0     0.4     0.0     0.0     0.0     0.0     0.0     0.0     0.0     0.0     0.0     3.1     0.0     0.0     0.0     0.0     0.0     0.0     0.0     0.0     0.0     0.3
[...]
 1975 180   241    0.47    2.33    0.74    2.71   129.0   0.347   0.129   2.358   0.752     0.3     1.7     0.4     0.0     126    0.00    0.13    0.00    0.22     0.0     0.0     0.0     0.0     0.0     0.0     0.0     0.0     0.0     0.0      8.      9.     10.     11.     13.      7.      6.     25.     19.     17.     0.0     0.0     0.0     0.0     0.0     0.0     0.0     0.0     0.0     0.0     0.0     0.0     0.0     0.0     0.0     0.0     0.0     0.0     0.0     0.0     0.1     0.0     0.0     0.0     0.0     0.0     0.0     0.0     0.0     0.0
 1975 181   242    0.47    2.33    0.75    2.71   129.1   0.347   0.129   2.358   0.752     0.3     1.6     0.4     0.0     116    0.00    0.12    0.00    0.20     0.0     0.0     0.0     0.0     0.0     0.0     0.0     0.0     0.0     0.0      7.      8.      9.     10.     12.      6.      6.     23.     18.     16.     0.0     0.0     0.0     0.0     0.0     0.0     0.0     0.0     0.0     0.0     0.0     0.0     0.0     0.0     0.0     0.0     0.0     0.0     0.0     0.0     0.0     0.0     0.0     0.0     0.0     0.0     0.0     0.0     0.0     0.0
 1975 182   243    0.47    2.33    0.75    2.71   129.2   0.347   0.129   2.358   0.752     0.3     1.5     0.4     0.0     112    0.00    0.11    0.00    0.19     0.0     0.0     0.0     0.0     0.0     0.0     0.0     0.0     0.0     0.0      6.      8.      9.     10.     12.      6.      6.     22.     18.     16.     0.0     0.0     0.0     0.0     0.0     0.0     0.0     0.0     0.0     0.0     0.0     0.0     0.0     0.0     0.0     0.0     0.0     0.0     0.0     0.0     0.0     0.0     0.0     0.0     0.0     0.0     0.0     0.0     0.0     0.0
 1975 183   244    0.47    2.33    0.75    2.71   129.3   0.347   0.129   2.358   0.753     0.3     1.4     0.3     0.0     108    0.00    0.11    0.00    0.18     0.0     0.0     0.0     0.0     0.0     0.0     0.0     0.0     0.0     0.0      5.      8.      9.      9.     11.      6.      5.     21.     18.     16.     0.0     0.0     0.0     0.0     0.0     0.0     0.0     0.0     0.0     0.0     0.0     0.0     0.0     0.0     0.0     0.0     0.0     0.0     0.0     0.0     0.0     0.0     0.0     0.0     0.0     0.0     0.0     0.0     0.0     0.0
 1975 184   245    0.47    2.34    0.75    2.71   129.4   0.347   0.130   2.358   0.753     0.3     1.4     0.3     0.0     107    0.00    0.11    0.00    0.18     0.0     0.0     0.0     0.0     0.0     0.0     0.0     0.0     0.0     0.0      5.      8.      9.      9.     11.      6.      5.     21.     18.     16.     0.0     0.0     0.0     0.0     0.0     0.0     0.0     0.0     0.0     0.0     0.0     0.0     0.0     0.0     0.0     0.0     0.0     0.0     0.0     0.0     0.0     0.0     0.0     0.0     0.0     0.0     0.0     0.0     0.0     0.0
 1975 185   246    0.47    2.34    0.75    2.71   129.5   0.347   0.130   2.358   0.753     0.3     1.3     0.3     0.0     109    0.00    0.11    0.00    0.18     0.0     0.0     0.0     0.0     0.0     0.0     0.0     0.0     0.0     0.0      4.      8.      9.     10.     12.      6.      5.     21.     18.     16.     0.0     0.0     0.0     0.0     0.0     0.0     0.0     0.0     0.0     0.0     0.0     0.0     0.0     0.0     0.0     0.0     0.0     0.0     0.0     0.0     0.0     0.0     0.0     0.0     0.0     0.0     0.0     0.0     0.0     0.0
 1975 186   247    0.47    2.34    0.75    2.71   129.6   0.347   0.130   2.358   0.753     0.3     1.2     0.3     0.0     113    0.00    0.11    0.00    0.19     0.0     0.0     0.0     0.0     0.0     0.0     0.0     0.0     0.0     0.0      4.      9.      9.     10.     12.      6.      6.     21.     19.     17.     0.0     0.0     0.0     0.0     0.0     0.0     0.0     0.0     0.0     0.0     0.0     0.0     0.0     0.0     0.0     0.0     0.0     0.0     0.0     0.0     0.0     0.0     0.0     0.0     0.0     0.0     0.0     0.0     0.0     0.0
 1975 187   248    0.47    2.34    0.75    2.71   129.7   0.347   0.130   2.358   0.753     0.3     1.2     0.3     0.0     111    0.00    0.11    0.00    0.18     0.0     0.0     0.0     0.0     0.0     0.0     0.0     0.0     0.0     0.0      4.      9.      9.     10.     12.      6.      6.     21.     19.     17.     0.0     0.0     0.0     0.0     0.0     0.0     0.0     0.0     0.0     0.0     0.0     0.0     0.0     0.0     0.0     0.0     0.0     0.0     0.0     0.0     0.0     0.0     0.0     0.0     0.0     0.0     0.0     0.0     0.0     0.0
 1975 188   249    0.47    2.34    0.75    2.71   129.8   0.347   0.130   2.358   0.754     0.2     1.1     0.3     0.0     111    0.00    0.11    0.00    0.18     0.0     0.0     0.0     0.0     0.0     0.0     0.0     0.0     0.0     0.0      3.      9.      9.     10.     12.      6.      6.     20.     19.     17.     0.0     0.0     0.0     0.0     0.0     0.0     0.0     0.0     0.0     0.0     0.0     0.0     0.0     0.0     0.0     0.0     0.0     0.0     0.0     0.0     0.0     0.0     0.0     0.0     0.0     0.0     0.0     0.0     0.0     0.0
 1975 189   250    0.47    2.34    0.75    2.71   130.0   0.347   0.130   2.358   0.754     0.2     1.0     0.3     0.0     115    0.00    0.12    0.00    0.21     0.0     0.0     0.0     0.0     0.0     0.0     0.0     0.0     0.0     0.0      7.      9.      9.     10.     12.      6.      6.     20.     20.     17.     0.0     0.0     0.0     0.0     0.0     0.0     0.0     0.0     0.0     0.0     0.0     0.0     0.0     0.0     0.0     0.0     0.0     0.0     0.0     0.0     0.0     0.1     0.0     0.0     0.0     0.0     0.0     0.0     0.0     0.0
 1975 190   251    0.47    2.34    0.75    2.71   130.1   0.347   0.130   2.358   0.754     0.2     0.9     0.3     0.0     119    0.00    0.12    0.00    0.22     0.0     0.0     0.0     0.0     0.0     0.0     0.0     0.0     0.0     0.0      8.     10.      9.     10.     12.      6.      6.     21.     20.     18.     0.0     0.0     0.0     0.0     0.0     0.0     0.0     0.0     0.0     0.0     0.0     0.0     0.0     0.0     0.0     0.0     0.0     0.0     0.0     0.0     0.1     0.1     0.0     0.0     0.0     0.0     0.0     0.0     0.0     0.0
 1975 191   252    0.47    2.34    0.75    2.71   130.2   0.347   0.130   2.358   0.754     0.2     0.9     0.3     0.0     120    0.00    0.12    0.00    0.22     0.0     0.0     0.0     0.0     0.0     0.0     0.0     0.0     0.0     0.0      8.     10.      9.     10.     12.      6.      6.     20.     20.     18.     0.0     0.0     0.0     0.0     0.0     0.0     0.0     0.0     0.0     0.0     0.0     0.0     0.0     0.0     0.0     0.0     0.0     0.0     0.0     0.0     0.1     0.1     0.0     0.0     0.0     0.0     0.0     0.0     0.0     0.0
 1975 192   253    0.47    2.34    0.75    2.71   130.3   0.347   0.130   2.358   0.754     0.2     0.9     0.3     0.0     124    0.00    0.12    0.00    0.23     0.0     0.0     0.0     0.0     0.0     0.0     0.0     0.0     0.0     0.0      8.     10.     10.     10.     13.      6.      6.     21.     21.     18.     0.0     0.0     0.0     0.0     0.0     0.0     0.0     0.0     0.0     0.0     0.0     0.0     0.0     0.0     0.0     0.0     0.0     0.0     0.0     0.0     0.1     0.1     0.0     0.0     0.0     0.0     0.0     0.0     0.0     0.0
 1975 193   254    0.47    2.35    0.75    2.71   130.4   0.347   0.131   2.358   0.755     0.2     0.8     0.3     0.0     125    0.00    0.13    0.00    0.23     0.0     0.0     0.0     0.0     0.0     0.0     0.0     0.0     0.0     0.0      8.     11.     10.     10.     13.      6.      6.     21.     22.     19.     0.0     0.0     0.0     0.0     0.0     0.0     0.0     0.0     0.0     0.0     0.0     0.0     0.0     0.0     0.0     0.0     0.0     0.0     0.0     0.0     0.1     0.1     0.0     0.0     0.0     0.0     0.0     0.0     0.0     0.0
 1975 194   255    0.47    2.35    0.75    2.71   130.6   0.347   0.131   2.358   0.755     0.2     0.7     0.3     0.0     124    0.00    0.12    0.00    0.24     0.0     0.0     0.0     0.0     0.0     0.0     0.0     0.0     0.0     0.0     10.     10.     10.     10.     13.      6.      6.     20.     21.     19.     0.0     0.0     0.0     0.0     0.0     0.0     0.0     0.0     0.0     0.0     0.0     0.0     0.0     0.0     0.0     0.0     0.0     0.0     0.0     0.0     0.1     0.1     0.0     0.0     0.0     0.0     0.0     0.0     0.0     0.0
 1975 195   256    0.47    2.35    0.75    2.71   130.7   0.347   0.131   2.358   0.755     0.2     0.7     0.3     0.0     128    0.00    0.13    0.00    0.26     0.0     0.0     0.0     0.0     0.0     0.0     0.0     0.0     0.0     0.0     13.     10.     10.     10.     13.      6.      6.     20.     22.     19.     0.0     0.0     0.0     0.0     0.0     0.0     0.0     0.0     0.0     0.0     0.0     0.0     0.0     0.0     0.0     0.0     0.0     0.0     0.0     0.0     0.1     0.1     0.0     0.0     0.0     0.0     0.0     0.0     0.0     0.0
 1975 196   257    0.47    2.35    0.75    2.71   130.8   0.347   0.131   2.358   0.755     0.2     0.7     0.3     0.0     131    0.00    0.13    0.00    0.27     0.0     0.0     0.0     0.0     0.0     0.0     0.0     0.0     0.0     0.0     13.     11.     10.     10.     13.      6.      6.     20.     22.     19.     0.0     0.0     0.0     0.0     0.0     0.0     0.0     0.0     0.0     0.0     0.0     0.0     0.0     0.0     0.0     0.0     0.0     0.0     0.0     0.0     0.1     0.1     0.0     0.0     0.0     0.0     0.0     0.0     0.0     0.0
 1975 197   258    0.47    2.35    0.75    2.71   131.0   0.347   0.131   2.358   0.756     0.2     0.6     0.3     0.0     131    0.00    0.13    0.00    0.27     0.0     0.0     0.0     0.0     0.0     0.0     0.0     0.0     0.0     0.0     14.     11.     10.     10.     13.      6.      6.     20.     22.     19.     0.0     0.0     0.0     0.0     0.0     0.0     0.0     0.0     0.0     0.0     0.0     0.0     0.0     0.0     0.0     0.0     0.0     0.0     0.0     0.0     0.1     0.1     0.0     0.0     0.0     0.0     0.0     0.0     0.0     0.0
 1975 198   259    0.47    2.35    0.75    2.71   131.1   0.347   0.131   2.358   0.756     0.2     0.6     0.3     0.0     130    0.00    0.13    0.00    0.28     0.0     0.0     0.0     0.0     0.0     0.0     0.0     0.0     0.0     0.0     15.     11.     10.      9.     12.      6.      6.     20.     22.     19.     0.0     0.0     0.0     0.0     0.0     0.0     0.0     0.0     0.0     0.0     0.0     0.0     0.0     0.0     0.0     0.0     0.0     0.0     0.0     0.0     0.1     0.1     0.0     0.0     0.0     0.0     0.0     0.0     0.0     0.0
 1975 199   260    0.47    2.35    0.75    2.71   131.2   0.347   0.131   2.358   0.756     0.2     0.5     0.3     0.0     135    0.00    0.13    0.00    0.27     0.0     0.0     0.0     0.0     0.0     0.0     0.0     0.0     0.0     0.0     16.     11.     11.     10.     13.      6.      6.     20.     22.     20.     0.0     0.0     0.0     0.0     0.0     0.0     0.0     0.0     0.0     0.0     0.0     0.0     0.0     0.0     0.0     0.0     0.0     0.0     0.0     0.0     0.1     0.1     0.0     0.0     0.0     0.0     0.0     0.0     0.0     0.0
 1975 200   261    0.47    2.35    0.75    2.71   131.4   0.347   0.131   2.358   0.757     0.2     0.5     0.3     0.0     143    0.00    0.14    0.00    0.34     0.0     0.0     0.0     0.0     0.0     0.0     0.0     0.0     0.0     0.0     26.     11.     10.      9.     12.      6.      6.     20.     22.     20.     0.0     0.0     0.0     0.0     0.0     0.0     0.0     0.0     0.0     0.0     0.0     0.0     0.0     0.0     0.0     0.0     0.0     0.0     0.0     0.0     0.2     0.1     0.0     0.0     0.0     0.0     0.0     0.0     0.0     0.0
 1975 201   262    0.47    2.35    0.75    2.71   131.5   0.347   0.132   2.358   0.757     0.2     0.5     0.3     0.0     139    0.00    0.14    0.00    0.35     0.0     0.0     0.0     0.0     0.0     0.0     0.0     0.0     0.0     0.0     28.     10.     10.      9.     12.      6.      5.     19.     21.     19.     0.0     0.0     0.0     0.0     0.0     0.0     0.0     0.0     0.0     0.0     0.0     0.0     0.0     0.0     0.0     0.0     0.0     0.0     0.0     0.0     0.2     0.1     0.0     0.0     0.0     0.0     0.0     0.0     0.0     0.0
 1975 202   263    0.47    2.35    0.75    2.71   131.6   0.347   0.132   2.358   0.757     0.2     0.5     0.4     0.0     138    0.00    0.14    0.00    0.36     0.0     0.0     0.0     0.0     0.0     0.0     0.0     0.0     0.0     0.0     28.     10.     10.      9.     12.      6.      5.     19.     21.     19.     0.0     0.0     0.0     0.0     0.0     0.0     0.0     0.0     0.0     0.0     0.0     0.0     0.0     0.0     0.0     0.0     0.0     0.0     0.0     0.0     0.2     0.1     0.0     0.0     0.0     0.0     0.0     0.0     0.0     0.0
 1975 203   264    0.47    2.35    0.75    2.71   131.8   0.347   0.132   2.358   0.758     0.2     0.5     0.4     0.0     131    0.00    0.13    0.00    0.33     0.0     0.0     0.0     0.0     0.0     0.0     0.0     0.0     0.0     0.0     24.     10.     10.      8.     11.      5.      5.     18.     20.     19.     0.0     0.0     0.0     0.0     0.0     0.0     0.0     0.0     0.0     0.0     0.0     0.0     0.0     0.0     0.0     0.0     0.0     0.0     0.0     0.0     0.2     0.1     0.0     0.0     0.0     0.0     0.0     0.0     0.0     0.0
 1975 204   265    0.47    2.35    0.75    2.71   131.9   0.347   0.132   2.358   0.758     0.2     0.5     0.4     0.0     125    0.00    0.12    0.00    0.30     0.0     0.0     0.0     0.0     0.0     0.0     0.0     0.0     0.0     0.0     20.     10.      9.      8.     11.      5.      5.     18.     20.     18.     0.0     0.0     0.0     0.0     0.0     0.0     0.0     0.0     0.0     0.0     0.0     0.0     0.0     0.0     0.0     0.0     0.0     0.0     0.0     0.0     0.1     0.1     0.0     0.0     0.0     0.0     0.0     0.0     0.0     0.0
 1975 205   266    0.47    2.35    0.75    2.71   132.0   0.347   0.132   2.358   0.758     0.2     0.4     0.3     0.0     123    0.00    0.12    0.00    0.29     0.0     0.0     0.0     0.0     0.0     0.0     0.0     0.0     0.0     0.0     19.     10.      9.      8.     11.      5.      5.     18.     20.     18.     0.0     0.0     0.0     0.0     0.0     0.0     0.0     0.0     0.0     0.0     0.0     0.0     0.0     0.0     0.0     0.0     0.0     0.0     0.0     0.0     0.1     0.1     0.0     0.0     0.0     0.0     0.0     0.0     0.0     0.0
 1975 206   267    0.47    2.35    0.75    2.71   132.1   0.347   0.132   2.358   0.758     0.2     0.4     0.3     0.0     118    0.00    0.12    0.00    0.27     0.0     0.0     0.0     0.0     0.0     0.0     0.0     0.0     0.0     0.0     18.      9.      9.      8.     10.      5.      5.     17.     19.     18.     0.0     0.0     0.0     0.0     0.0     0.0     0.0     0.0     0.0     0.0     0.0     0.0     0.0     0.0     0.0     0.0     0.0     0.0     0.0     0.0     0.1     0.1     0.0     0.0     0.0     0.0     0.0     0.0     0.0     0.0
 1975 207   268    0.47    2.35    0.75    2.71   132.2   0.347   0.132   2.358   0.759     0.2     0.4     0.3     0.0     112    0.00    0.11    0.00    0.26     0.0     0.0     0.0     0.0     0.0     0.0     0.0     0.0     0.0     0.0     17.      9.      9.      7.     10.      5.      5.     16.     18.     17.     0.0     0.0     0.0     0.0     0.0     0.0     0.0     0.0     0.0     0.0     0.0     0.0     0.0     0.0     0.0     0.0     0.0     0.0     0.0     0.0     0.1     0.1     0.0     0.0     0.0     0.0     0.0     0.0     0.0     0.0
 1975 208   269    0.47    2.35    0.75    2.71   132.4   0.347   0.132   2.358   0.759     0.2     0.4     0.3     0.0     112    0.00    0.11    0.00    0.26     0.0     0.0     0.0     0.0     0.0     0.0     0.0     0.0     0.0     0.0     15.      9.      9.      7.     10.      5.      5.     16.     18.     17.     0.0     0.0     0.0     0.0     0.0     0.0     0.0     0.0     0.0     0.0     0.0     0.0     0.0     0.0     0.0     0.0     0.0     0.0     0.0     0.0     0.1     0.1     0.0     0.0     0.0     0.0     0.0     0.0     0.0     0.0
 1975 209   270    0.47    2.35    0.75    2.71   132.5   0.347   0.133   2.358   0.759     0.2     0.3     0.3     0.0     112    0.00    0.11    0.00    0.25     0.0     0.0     0.0     0.0     0.0     0.0     0.0     0.0     0.0     0.0     14.     10.      9.      7.     10.      5.      5.     16.     18.     18.     0.0     0.0     0.0     0.0     0.0     0.0     0.0     0.0     0.0     0.0     0.0     0.0     0.0     0.0     0.0     0.0     0.0     0.0     0.0     0.0     0.1     0.1     0.0     0.0     0.0     0.0     0.0     0.0     0.0     0.0
 1975 210   271    0.47    2.35    0.75    2.71   132.6   0.347   0.133   2.358   0.759     0.2     0.3     0.3     0.0     114    0.00    0.11    0.00    0.25     0.0     0.0     0.0     0.0     0.0     0.0     0.0     0.0     0.0     0.0     13.     10.     10.      8.     10.      5.      5.     17.     19.     18.     0.0     0.0     0.0     0.0     0.0     0.0     0.0     0.0     0.0     0.0     0.0     0.0     0.0     0.0     0.0     0.0     0.0     0.0     0.0     0.0     0.1     0.1     0.0     0.0     0.0     0.0     0.0     0.0     0.0     0.0
 1975 211   272    0.47    2.35    0.75    2.71   132.7   0.347   0.133   2.358   0.760     0.2     0.3     0.3     0.0     122    0.00    0.12    0.00    0.27     0.0     0.0     0.0     0.0     0.0     0.0     0.0     0.0     0.0     0.0     13.     11.     11.      8.     11.      6.      5.     18.     20.     19.     0.0     0.0     0.0     0.0     0.0     0.0     0.0     0.0     0.0     0.0     0.0     0.0     0.0     0.0     0.0     0.0     0.0     0.0     0.0     0.0     0.1     0.1     0.0     0.0     0.0     0.0     0.0     0.0     0.0     0.0
 1975 212   273    0.47    2.35    0.75    2.71   132.8   0.347   0.133   2.358   0.760     0.2     0.3     0.3     0.0     130    0.00    0.13    0.00    0.28     0.0     0.0     0.0     0.0     0.0     0.0     0.0     0.0     0.0     0.0     13.     13.     12.      9.     12.      6.      6.     19.     21.     20.     0.0     0.0     0.0     0.0     0.0     0.0     0.0     0.0     0.0     0.0     0.0     0.0     0.0     0.0     0.0     0.0     0.0     0.0     0.0     0.0     0.1     0.1     0.0     0.0     0.0     0.0     0.0     0.0     0.0     0.0
 1975 213   274    0.47    2.35    0.75    2.71   133.0   0.347   0.133   2.358   0.760     0.2     0.3     0.3     0.0     131    0.00    0.13    0.00    0.28     0.0     0.0     0.0     0.0     0.0     0.0     0.0     0.0     0.0     0.0     11.     13.     12.      9.     13.      6.      6.     20.     21.     21.     0.0     0.0     0.0     0.0     0.0     0.0     0.0     0.0     0.0     0.0     0.0     0.0     0.0     0.0     0.0     0.0     0.0     0.0     0.0     0.0     0.1     0.1     0.0     0.0     0.0     0.0     0.0     0.0     0.0     0.0
 1975 214   275    0.48    2.35    0.76    2.71   133.1   0.347   0.133   2.358   0.761     0.2     0.2     0.3     0.0     130    0.00    0.13    0.00    0.27     0.0     0.0     0.0     0.0     0.0     0.0     0.0     0.0     0.0     0.0     10.     13.     12.      9.     13.      6.      6.     20.     21.     21.     0.0     0.0     0.0     0.0     0.0     0.0     0.0     0.0     0.0     0.0     0.0     0.0     0.0     0.0     0.0     0.0     0.0     0.0     0.0     0.0     0.1     0.1     0.0     0.0     0.0     0.0     0.0     0.0     0.0     0.0
