$GROWTH ASPECTS OUTPUT FILE

*DSSAT Cropping System Model Ver. 4.8.2.010 -develop  JUL 08, 2024 16:11:18

*RUN   1        : 0 KG N/HA                 CSCER048 RORO7401    1
 MODEL          : CSCER048 - Wheat
 EXPERIMENT     : RORO7401 WH N RESPONSE,ROTHAMSTED  8FE(N)  (DSSAT3)
 DATA PATH      : C:\DSSAT48\Wheat\
 TREATMENT  1   : 0 KG N/HA                 CSCER048
  
@YEAR DOY   DAS   DAP TMEAN TKILL  GSTD  L#SD PARID PARUD  AWAD  LAID  SAID  CAID  TWAD SDWAD  RWAD  CWAD  LWAD  SWAD  HWAD  HIAD CHWAD  EWAD RSWAD SNWPD SNWLD SNWSD  RS%D  H#AD  HWUD  T#AD  SLAD  RDPD  PTFD  SWXD WAVRD WUPRD  WFTD  WFPD  WFGD  NFTD  NFPD  NFGD NUPRD  TFPD  TFGD VRNFD DYLFD
 1974 310     5     0   5.5  -6.0  0.00  0.00  0.00  0.00   0.0  0.00 0.000  0.00    79    79     0     0     0     0     0  0.00     0     0     0     0     0     0   0.0     0     0   277   -99  0.04  0.00   6.9  99.9  1.00  0.00  0.00  0.00  0.00  0.00  0.00   0.0  0.00  0.45  0.50  0.00
 1974 311     6     1   7.6  -6.0  3.30  0.00  0.00  0.00   0.0  0.00 0.000  0.00    79    79     0     0     0     0     0  0.00     0     0     0     0     0     0   0.0     0     0   277   -99  0.04  0.00   7.4  99.9  1.00  0.00  0.00  0.00  0.00  0.00  0.00   0.0  0.00  0.24  0.50  0.00
 1974 312     7     2   9.0  -6.0  5.73  0.00  0.00  0.00   0.0  0.00 0.000  0.00    79    79     0     0     0     0     0  0.00     0     0     0     0     0     0   0.0     0     0   277   -99  0.04  0.00   7.2  99.9  1.00  0.00  0.00  0.00  0.00  0.00  0.00   0.0  0.00  0.10  0.50  0.00
 1974 313     8     3   9.9  -6.0  7.12  0.00  0.00  0.00   0.0  0.00 0.000  0.00    79    78     1     0     0     0     0  0.00     0     0     0     0     0     0   0.0     0     0   277   -99  0.05  0.00  10.7  99.9  1.00  0.00  0.00  0.00  0.00  0.00  0.00   0.0  0.00  0.01  0.49  0.00
 1974 314     9     4   7.5  -6.4  8.12  0.00  0.00  0.00   0.0  0.00 0.000  0.00    79    77     1     0     0     0     0  0.00     0     0     0     0     0 .0003   0.0     0     0   277   -99  0.07  0.00  12.8  99.9  1.00  0.00  0.00  0.00  0.00  0.00  0.00   2.0  0.00  0.25  0.49  0.00
 1974 315    10     5   7.3  -6.9  9.12  0.00  0.00  0.00   0.0  0.00 0.000  0.00    79    77     2     0     0     0     0  0.00     0     0     0     0     0 .0008   0.0     0     0   277   -99  0.08  0.00  15.4  99.9  1.00  0.00  0.00  0.00  0.00  0.00  0.00   2.0  0.00  0.26  0.48  0.00
 1974 316    11     6   5.0  -7.8  9.74  0.00  0.00  0.00   0.0  0.00 0.000  0.00    79    76     2     0     0     0     0  0.00     0     0     0     0     0 .0012   0.0     0     0   277   -99  0.08  0.00  15.8  99.9  1.00  0.00  0.00  0.00  0.00  0.00  0.00   2.0  0.00  0.50  0.47  0.00
 1974 317    12     7   6.0  -8.5 10.00  0.00  0.00  0.00   0.0  0.00 0.000  0.00    79    76     3     0     0     0     0  0.00     0     0     0     0     0 .0019   0.0     0     0   277   -99  0.09  0.00  18.9  99.9  1.00  0.00  0.00  0.00  0.00  0.00  0.00   2.0  0.00  0.40  0.46  0.00
 1974 318    13     8   9.0  -8.7 10.18  0.18  0.01  0.00   0.0  0.01 0.001  0.01    79    72     3     3     2     1     0  0.00     0     0     0     0     0 .0032   0.0     0     0   277   485  0.11  0.75  21.6  99.9  1.00  0.00  0.00  0.00  0.00  0.00  0.00   0.3  0.00  0.10  0.45  0.81
 1974 319    14     9   8.2  -9.0 10.34  0.34  0.01  2.70   0.4  0.02 0.001  0.02    79    70     4     5     3     2     0  0.00     0     0     0     0     0 .0046   5.2     0     0   277   482  0.12  0.75  24.0  99.9 15.00  0.00  0.00  0.00  0.00  0.00  0.00   0.4  0.00  0.18  0.44  0.82
 1974 320    15    10   7.1  -9.5 10.49  0.49  0.02  2.68   0.6  0.02 0.002  0.02    80    67     5     8     5     3     0  0.00     0     0     1     0     0 .0060   9.8     0     0   277   482  0.13  0.75  25.9  99.9 15.00  0.00  0.00  0.00  0.01  0.01  0.01   0.6  0.00  0.29  0.43  0.83
 1974 321    16    11   5.6 -10.3 10.60  0.60  0.02  2.69   0.8  0.03 0.002  0.03    80    66     5     9     5     4     0  0.00     0     0     1     0     0 .0073  14.3     0     0   277   482  0.14  0.75  27.9  99.9 15.00  0.00  0.00  0.00  0.00  0.00  0.00   0.6  0.00  0.44  0.42  0.83
 1974 322    17    12   4.8 -11.2 10.70  0.70  0.02  2.61   0.2  0.03 0.002  0.03    80    65     5    10     6     4     0  0.00     0     0     1     0     0 .0085  14.4     0     0   277   482  0.14  0.75  29.4  99.9 15.00  0.00  0.00  0.00  0.00  0.00  0.00   0.9  0.03  0.51  0.41  0.84
 1974 323    18    13   4.4 -12.1 10.78  0.78  0.03  2.37   1.3  0.03 0.002  0.03    82    64     6    12     6     6     0  0.00     0     0     2     0     0 .0097  20.8     0     0   277   482  0.15  0.75  30.6  99.9 10.25  0.00  0.00  0.00  0.00  0.00  0.00   1.0  0.12  0.56  0.40  0.85
 1974 324    19    14   4.0 -13.0 10.86  0.86  0.03  2.18   0.1  0.03 0.002  0.03    82    63     6    12     7     6     0  0.00     0     0     3     0     0 .0108  20.1     0     0   277   482  0.16  0.75  32.1  99.9 15.00  0.00  0.00  0.00  0.00  0.00  0.00   1.2  0.19  0.60  0.40  0.86
 1974 325    20    15   7.0 -13.5 11.01  1.00  0.03  2.70   0.5  0.04 0.003  0.04    82    61     6    15     8     7     0  0.00     0     0     3     0     0 .0129  19.7     0     0   277   482  0.17  0.75  34.3  99.9 15.00  0.00  0.00  0.00  0.00  0.00  0.00   0.4  0.00  0.30  0.39  0.86
 1974 326    21    16   7.9 -13.9 11.16  1.16  0.04  2.70   0.3  0.05 0.003  0.05    82    58     7    17     9     8     0  0.00     0     0     3     0     0 .0154  18.1     0     0   277   480  0.18  0.75  34.3  99.9 15.00  0.00  0.00  0.00  0.00  0.00  0.00   0.3  0.00  0.21  0.38  0.87
 1974 327    22    17   8.2 -14.2 11.33  1.33  0.04  2.70   0.9  0.05 0.004  0.06    83    55     8    21    11     9     0  0.00     0     0     4     0     0 .0183  18.6     0     0   277   479  0.19  0.75  35.1  99.9 15.00  0.00  0.00  0.00  0.00  0.00  0.00   0.3  0.00  0.18  0.37  0.88
 1974 328    23    18   5.4 -15.0 11.43  1.43  0.05  2.70   0.5  0.06 0.004  0.06    84    54     8    22    12    10     0  0.00     0     0     4     0     0 .0204  19.1     0     0   277   478  0.20  0.75  36.7  99.9 15.00  0.00  0.00  0.00  0.00  0.00  0.00   0.7  0.00  0.46  0.36  0.88
 1974 329    24    19   5.6 -15.0 11.55  1.55  0.05  2.70   2.4  0.06 0.004  0.07    86    52     8    25    13    12     0  0.00     0     0     6     0     0 .0226  24.1     0     0   277   478  0.21  0.75  36.3  99.9  9.32  0.00  0.00  0.00  0.00  0.00  0.00   0.7  0.00  0.44  0.35  0.89
 1974 330    25    20   5.0 -15.0 11.65  1.65  0.05  2.70   1.4  0.06 0.005  0.07    87    51     9    27    13    14     0  0.00     0     0     7     0     0 .0247  26.3     0     0   277   478  0.21  0.75  37.3  99.9 15.00  0.00  0.00  0.00  0.00  0.00  0.00   0.6  0.00  0.50  0.34  0.89
 1974 331    26    21   4.6 -15.0 11.74  1.74  0.05  2.46   0.6  0.07 0.005  0.07    88    50     9    28    14    14     0  0.00     0     0     8     0     0 .0267  26.7     0     0   277   477  0.22  0.75  38.9  99.9 15.00  0.00  0.00  0.00  0.00  0.00  0.00   0.8  0.09  0.54  0.33  0.90
 1974 332    27    22   5.3 -15.0 11.84  1.84  0.06  2.70   1.3  0.07 0.005  0.07    89    49     9    30    15    16     0  0.00     0     0     9     0     0 .0291  28.1     0     0   277   477  0.23  0.75  41.5  99.9 15.00  0.00  0.00  0.00  0.00  0.00  0.00   0.6  0.00  0.47  0.32  0.91
 1974 333    28    23   6.9 -15.0 11.98  1.98  0.06  2.70   1.8  0.08 0.005  0.08    90    47    10    34    16    18     0  0.00     0     0    10     0     0 .0324  29.5     0     0   277   477  0.24  0.75  45.0  99.9 14.30  0.00  0.00  0.00  0.00  0.00  0.00   0.3  0.00  0.31  0.31  0.91
 1974 334    29    24   7.8 -15.0 12.07  2.07  0.07  2.70   1.1  0.08 0.006  0.09    91    45    11    36    17    19     0  0.00     0     0    11     0     0 .0363  29.9     0     0   277   476  0.25  0.75  44.4  99.9 15.00  0.00  0.00  0.00  0.00  0.00  0.00   0.4  0.00  0.23  0.30  0.92
 1974 335    30    25   8.7 -15.0 12.15  2.15  0.07  2.70   0.9  0.08 0.006  0.09    92    43    11    38    18    20     0  0.00     0     0    11     0     0 .0408  29.8     0     0   277   475  0.26  0.75  45.8  99.9 15.00  0.00  0.00  0.00  0.00  0.00  0.00   0.3  0.00  0.13  0.30  0.92
 1974 336    31    26  11.0 -15.0 12.26  2.26  0.08  2.70   0.9  0.09 0.007  0.10    93    40    12    41    19    22     0  0.00     0     0    12     0     0 .0470  29.3     0     0   277   474  0.27  0.75  46.9  99.9 15.00  0.00  0.00  0.00  0.00  0.00  0.00   0.3  0.00  0.00  0.29  0.93
 1974 337    32    27  11.1 -15.0 12.38  2.38  0.08  2.70   0.8  0.10 0.007  0.11    94    37    13    44    21    23     0  0.00     0     0    13     0     0 .0535  28.7     0     0   277   473  0.29  0.75  48.5  99.9 15.00  0.00  0.00  0.00  0.00  0.00  0.00   0.3  0.00  0.00  0.29  0.93
 1974 338    33    28  10.0 -15.0 12.48  2.47  0.09  2.70   2.5  0.11 0.008  0.11    96    34    13    48    23    26     0  0.00     0     0    15     0     0 .0598  30.2     0     0   277   473  0.30  0.76  50.2  99.9 12.52  0.00  0.00  0.00  0.00  0.00  0.00   0.3  0.00  0.00  0.28  0.94
 1974 339    34    29   6.2 -15.0 12.54  2.54  0.09  2.64   2.7  0.11 0.008  0.12    99    34    14    51    23    28     0  0.00     0     0    17     0     0 .0639  32.5     0     0   277   472  0.31  0.75  51.2  99.9 13.03  0.00  0.00  0.00  0.02  0.02  0.02   0.8  0.00  0.38  0.27  0.94
 1974 340    35    30   8.1 -15.0 12.62  2.62  0.09  2.63   2.2  0.11 0.008  0.12   101    32    14    54    24    30     0  0.00     0     0    18     0     0 .0695  33.8     0     0   277   472  0.32  0.75  52.6  99.9 15.00  0.00  0.00  0.00  0.03  0.03  0.03   0.6  0.00  0.19  0.26  0.94
 1974 341    36    31   9.4 -15.0 12.71  2.71  0.10  2.59   2.0  0.12 0.009  0.13   102    30    15    58    25    33     0  0.00     0     0    20     0     0 .0761  34.4     0     0   277   471  0.33  0.75  54.2  99.9 15.00  0.00  0.00  0.00  0.04  0.04  0.04   0.4  0.00  0.06  0.26  0.95
 1974 342    37    32   9.8 -15.0 12.81  2.81  0.10  2.50   0.5  0.12 0.009  0.13   103    27    15    60    27    34     0  0.00     0     0    20     0     0 .0834  33.7     0     0   277   471  0.34  0.75  56.5  99.9 15.00  0.00  0.00  0.00  0.07  0.07  0.07   0.4  0.00  0.02  0.25  0.95
 1974 343    38    33   7.5 -15.0 12.89  2.89  0.10  2.43   1.8  0.13 0.009  0.14   104    26    16    63    27    35     0  0.00     0     0    22     0     0 .0891  34.5     0     0   277   471  0.35  0.75  57.9  99.9 15.00  0.00  0.00  0.00  0.10  0.10  0.10   0.7  0.00  0.25  0.24  0.95
 1974 344    39    34   3.3 -15.0 12.92  2.92  0.10  1.60   1.2  0.13 0.010  0.14   106    26    16    64    27    36     0  0.00     0     0    23     0     0 .0917  35.4     0     0   277   471  0.36  0.74  65.2  99.9 15.00  0.00  0.00  0.00  0.10  0.10  0.10   2.0  0.34  0.67  0.23  0.96
 1974 345    40    35   2.2 -15.0 12.94  2.94  0.10  1.07   1.7  0.13 0.010  0.14   107    26    16    65    27    38     0  0.00     0     0    24     0     0 .0935  36.6     0     0   277   471  0.36  0.75  67.3  99.9 15.00  0.00  0.00  0.00  0.10  0.10  0.10   2.0  0.56  0.78  0.22  0.96
 1974 346    41    36   4.5 -15.0 12.99  2.99  0.11  2.23   0.3  0.13 0.010  0.14   107    25    17    66    28    38     0  0.00     0     0    24     0     0 .0972  36.6     0     0   277   470  0.36  0.75  70.3  99.9 15.00  0.00  0.00  0.00  0.09  0.09  0.09   1.5  0.09  0.55  0.21  0.96
 1974 347    42    37   3.6 -15.0 13.02  3.02  0.11  1.75   2.6  0.13 0.010  0.14   110    25    17    68    28    40     0  0.00     0     0    26     0     0 0.100  38.2     0     0   277   470  0.37  0.75  65.4  99.9 12.26  0.00  0.00  0.00  0.09  0.09  0.09   1.7  0.29  0.64  0.20  0.97
 1974 348    43    38   4.5 -15.0 13.07  3.07  0.11  2.23   2.5  0.13 0.010  0.14   112    24    17    70    28    42     0  0.00     0     0    28     0     0 0.104  39.6     0     0   277   470  0.37  0.75  65.2  99.9 15.00  0.00  0.00  0.00  0.08  0.08  0.08   1.3  0.10  0.55  0.20  0.97
 1974 349    44    39   4.9 -15.0 13.12  3.12  0.11  2.44   3.7  0.13 0.010  0.14   115    24    18    73    29    45     0  0.00     0     0    31     0     0 0.108  41.6     0     0   277   470  0.38  0.75  65.0  99.9 12.31  0.00  0.00  0.00  0.08  0.08  0.08   1.1  0.02  0.51  0.19  0.97
 1974 350    45    40   6.3 -15.0 13.18  3.18  0.11  2.51   0.3  0.14 0.010  0.15   115    23    18    75    29    45     0  0.00     0     0    31     0     0 0.114  41.2     0     0   277   470  0.39  0.75  67.3  99.9 15.00  0.00  0.00  0.00  0.07  0.07  0.07   0.6  0.00  0.37  0.18  0.97
 1974 351    46    41   4.8 -15.0 13.23  3.23  0.11  2.37   3.7  0.14 0.010  0.15   119    22    19    78    30    48     0  0.00     0     0    33     0     0 0.118  43.0     0     0   277   469  0.39  0.75  65.9  99.9 12.69  0.00  0.00  0.00  0.08  0.08  0.08   0.9  0.05  0.52  0.17  0.97
 1974 352    47    42   5.6 -15.0 13.28  3.28  0.11  2.50   2.4  0.14 0.010  0.15   121    21    19    80    30    50     0  0.00     0     0    35     0     0 0.124  43.9     0     0   277   469  0.40  0.75  66.6  99.9 15.00  0.00  0.00  0.00  0.07  0.07  0.07   0.9  0.00  0.44  0.16  0.97
 1974 353    48    43   6.5 -15.0 13.35  3.35  0.12  2.51   1.3  0.14 0.011  0.15   122    20    20    82    31    51     0  0.00     0     0    36     0     0 0.130  44.0     0     0   277   469  0.41  0.75  67.3  99.9 15.00  0.00  0.00  0.00  0.07  0.07  0.07   0.7  0.00  0.35  0.15  0.97
 1974 354    49    44   9.4 -15.0 13.44  3.44  0.12  2.50   2.2  0.15 0.011  0.16   124    19    20    85    32    53     0  0.00     0     0    37     0     0 0.139  43.4     0     0   277   468  0.42  0.75  68.9  99.9 15.00  0.00  0.00  0.00  0.07  0.07  0.07   0.4  0.00  0.06  0.14  0.98
 1974 355    50    45   9.4 -15.0 13.54  3.54  0.12  2.43   0.4  0.16 0.012  0.17   124    18    21    86    33    53     0  0.00     0     0    36     0     0 0.149  41.8     0     0   277   467  0.43  0.75  72.5  99.9 15.00  0.00  0.00  0.00  0.10  0.10  0.10   0.4  0.00  0.06  0.13  0.98
 1974 356    51    46  10.0 -15.0 13.64  3.64  0.13  2.37   1.9  0.16 0.012  0.17   126    17    21    88    35    53     0  0.00     0     0    36     0     0 0.159  40.6     0     0   277   467  0.45  0.74  75.6  99.9 15.00  0.00  0.00  0.00  0.12  0.12  0.12   0.4  0.00  0.00  0.13  0.98
 1974 357    52    47  10.2 -15.0 13.74  3.74  0.13  2.31   3.4  0.17 0.013  0.18   129    16    22    91    36    54     0  0.00     0     0    36     0     0 0.170  40.1     0     0   277   466  0.46  0.74  77.2  99.9 13.33  0.00  0.00  0.00  0.14  0.14  0.14   0.4  0.00  0.00  0.12  0.98
 1974 358    53    48   7.6 -15.0 13.82  3.82  0.14  2.27   3.0  0.17 0.013  0.19   132    16    23    93    37    56     0  0.00     0     0    38     0     0 0.178  40.4     0     0   277   466  0.47  0.74  78.5  99.9 15.00  0.00  0.00  0.00  0.16  0.16  0.16   0.7  0.00  0.24  0.11  0.98
 1974 359    54    49   6.9 -15.0 13.89  3.89  0.14  2.27   0.3  0.18 0.013  0.19   132    16    23    93    38    56     0  0.00     0     0    37     0     0 0.186  39.5     0     0   277   466  0.47  0.74  82.6  99.9 15.00  0.00  0.00  0.00  0.16  0.16  0.16   0.9  0.00  0.31  0.11  0.97
 1974 360    55    50   7.9 -15.0 13.96  3.96  0.14  2.29   2.2  0.18 0.013  0.19   134    16    23    95    39    56     0  0.00     0     0    37     0     0 0.195  39.2     0     0   277   465  0.48  0.74  91.4  99.9 15.00  0.00  0.00  0.00  0.15  0.15  0.15   0.7  0.00  0.21  0.10  0.97
 1974 361    56    51   9.8 -15.0 14.06  4.06  0.15  2.29   3.1  0.19 0.014  0.20   137    16    24    97    40    57     0  0.00     0     0    37     0     0 0.206  38.5     0     0   277   465  0.49  0.74  90.8  99.9 15.00  0.00  0.00  0.00  0.15  0.15  0.15   0.5  0.00  0.02  0.09  0.97
 1974 362    57    52  10.5 -15.0 14.17  4.17  0.15  2.25   2.8  0.19 0.014  0.20   139    16    24    99    41    58     0  0.00     0     0    38     0 0.623 0.219  38.3     0     0   277   464  0.50  0.74  90.4  99.9 15.00  0.00  0.00  0.00  0.17  0.17  0.17   0.4  0.00  0.00  0.09  0.97
 1974 363    58    53  10.4 -15.0 14.27  4.27  0.15  2.21   2.5  0.19 0.014  0.21   140    16    25   100    41    58     0  0.00     0     0    38     0 1.242 0.231  37.9     0     0   277   463  0.52  0.74  90.0  99.9 15.00  0.00  0.00  0.00  0.18  0.18  0.18   0.6  0.00  0.00  0.08  0.97
 1974 364    59    54   4.1 -15.0 14.31  4.31  0.15  1.82   3.8  0.19 0.014  0.21   143    16    25   102    41    61     0  0.00     0     0    41     0 1.486 0.236  39.6     0     0   277   463  0.52  0.74  86.5  99.9 12.63  0.00  0.00  0.00  0.18  0.18  0.18   2.0  0.18  0.59  0.07  0.97
 1974 365    60    55   5.0 -15.0 14.36  4.36  0.15  2.24   2.4  0.19 0.014  0.21   145    16    25   104    41    63     0  0.00     0     0    42     0 1.784 0.243  40.5     0     0   277   463  0.52  0.74  85.5  99.9 15.00  0.00  0.00  0.00  0.17  0.17  0.17   1.7  0.00  0.50  0.06  0.97
 1975   1    61    56   6.0 -15.0 14.42  4.42  0.15  2.27   1.4  0.19 0.014  0.21   146    16    26   105    41    63     0  0.00     0     0    43     0 2.142 0.250  40.7     0     0   277   462  0.53  0.74  87.5  99.9 15.00  0.00  0.00  0.00  0.16  0.16  0.16   1.5  0.00  0.40  0.05  0.96
 1975   2    62    57   7.5 -15.0 14.50  4.50  0.15  2.30   1.4  0.19 0.014  0.21   147    16    26   105    42    63     0  0.00     0     0    43     0 2.589 0.260  40.6     0     0   277   462  0.54  0.74  87.2  99.9 15.00  0.00  0.00  0.00  0.15  0.15  0.15   1.1  0.00  0.25  0.04  0.96
 1975   3    63    58   7.2 -15.0 14.57  4.57  0.15  2.33   2.6  0.19 0.015  0.21   149    16    26   107    42    65     0  0.00     0     0    44     0 3.022 0.269  41.1     0     0   277   462  0.55  0.74  88.0  99.9 15.00  0.00  0.00  0.00  0.14  0.14  0.14   1.3  0.00  0.27  0.03  0.96
 1975   4    64    59   4.0 -15.0 14.61  4.61  0.15  1.88   3.3  0.19 0.014  0.21   151    16    27   109    42    67     0  0.00     0     0    46     0 3.261 0.275  42.4     0     0   282   461  0.55  0.74  88.4  99.9 15.00  0.00  0.00  0.00  0.13  0.13  0.13   2.0  0.20  0.60  0.02  0.95
 1975   5    65    60   5.1 -15.0 14.66  4.66  0.15  2.37   2.3  0.19 0.015  0.21   153    16    27   110    42    68     0  0.00     0     0    48     0 3.569 0.281  43.1     0     0   288   461  0.56  0.74  89.1  99.9 15.00  0.00  0.00  0.00  0.12  0.12  0.12   2.0  0.00  0.49  0.01  0.95
 1975   6    66    61   8.4 -15.0 14.75  4.75  0.15  2.39   0.7  0.20 0.015  0.21   153    16    27   110    42    68     0  0.00     0     0    47     0 4.075 0.293  42.5     0     0   298   461  0.57  0.74  92.9  99.9 15.00  0.00  0.00  0.00  0.11  0.11  0.11   0.9  0.00  0.16  0.01  0.95
 1975   7    67    62   6.7 -15.0 14.81  4.81  0.15  2.41   3.3  0.20 0.015  0.21   156    16    28   112    43    70     0  0.00     0     0    49     0 4.473 0.302  43.2     0     0   307   460  0.57  0.75  93.7  99.9 15.00  0.00  0.00  0.00  0.11  0.11  0.11   1.9  0.00  0.33  0.00  0.94
 1975   8    68    63   6.9 -15.0 14.88  4.88  0.15  2.43   1.7  0.20 0.015  0.21   157    16    28   113    43    70     0  0.00     0     0    49     0 4.886 0.312  43.2     0     0   315   460  0.58  0.75  93.5  99.9 15.00  0.00  0.00  0.00  0.10  0.10  0.10   1.6  0.00  0.31  0.00  0.94
 1975   9    69    64   7.2 -15.0 14.95  4.95  0.16  2.45   0.8  0.20 0.015  0.21   157    16    28   113    43    70     0  0.00     0     0    49     0 5.318 0.322  42.8     0     0   324   459  0.59  0.75  94.5  99.9 15.00  0.00  0.00  0.00  0.09  0.09  0.09   1.5  0.00  0.28  0.00  0.94
 1975  10    70    65   8.1 -15.0 15.03  5.03  0.16  2.47   0.6  0.20 0.015  0.22   157    16    28   113    44    69     0  0.00     0     0    48     0 5.804 0.333  41.9     0     0   335   459  0.60  0.75  95.6  99.9 15.00  0.00  0.00  0.00  0.09  0.09  0.09   1.1  0.00  0.19  0.00  0.93
 1975  11    71    66   8.9 -15.0 15.12  5.12  0.16  2.49   2.0  0.21 0.016  0.22   158    16    28   114    45    69     0  0.00     0     0    47     0 6.361 0.345  41.1     0     0   346   458  0.61  0.75  96.9  99.9 15.00  0.00  0.00  0.00  0.08  0.08  0.08   0.8  0.00  0.11  0.00  0.93
 1975  12    72    67   7.9 -15.0 15.20  5.20  0.16  2.49   1.0  0.21 0.016  0.22   159    16    29   114    46    69     0  0.00     0     0    46     0 6.856 0.357  40.3     0     0   356   457  0.61  0.75 102.2  99.9 15.00  0.00  0.00  0.00  0.08  0.08  0.08   1.1  0.00  0.21  0.00  0.92
 1975  13    73    68   5.6 -15.0 15.26  5.26  0.16  2.50   3.7  0.21 0.016  0.23   162    16    29   117    46    71     0  0.00     0     0    48     0 7.210 0.365  41.2     0     0   363   457  0.62  0.75 100.5  99.9 15.00  0.00  0.00  0.00  0.07  0.07  0.07   2.0  0.00  0.44  0.00  0.92
 1975  14    74    69   7.8 -15.0 15.34  5.34  0.17  2.52   2.7  0.21 0.016  0.23   164    16    30   118    47    72     0  0.00     0     0    48     0 7.706 0.376  40.9     0     0   373   456  0.63  0.75 103.0  99.9 15.00  0.00  0.00  0.00  0.07  0.07  0.07   0.9  0.00  0.22  0.00  0.91
 1975  15    75    70   8.4 -15.0 15.42  5.42  0.17  2.52   5.8  0.22 0.017  0.23   168    16    30   122    48    74     0  0.00     0     0    51     0 8.238 0.388  41.5     0     0   384   455  0.64  0.75 106.7  99.9 12.11  0.00  0.00  0.00  0.07  0.07  0.07   0.8  0.00  0.16  0.00  0.91
 1975  16    76    71   4.8 -15.0 15.47  5.47  0.17  2.41   4.3  0.22 0.017  0.23   172    16    31   125    48    77     0  0.00     0     0    53     0 8.543 0.396  42.6     0     0   390   455  0.64  0.75 109.9  99.9 15.00  0.00  0.00  0.00  0.07  0.07  0.07   2.0  0.04  0.52  0.00  0.90
 1975  17    77    72   4.8 -15.0 15.51  5.51  0.17  2.40   4.1  0.22 0.017  0.24   175    16    32   128    48    80     0  0.00     0     0    56     0 8.845 0.403  43.7     0     0   396   454  0.65  0.75 112.9  99.9 15.00  0.00  0.00  0.00  0.06  0.06  0.06   2.0  0.05  0.52  0.00  0.89
 1975  18    78    73   2.5 -15.0 15.54  5.54  0.17  1.24   0.3  0.22 0.017  0.23   175    16    32   128    48    80     0  0.00     0     0    56     0 9.000 0.407  43.8     0     0   400   454  0.65  0.75 119.4  99.9 15.00  0.00  0.00  0.00  0.06  0.06  0.06   2.0  0.51  0.75  0.00  0.89
 1975  19    79    74   3.5 -15.0 15.57  5.57  0.17  1.81   5.4  0.22 0.017  0.23   180    16    32   132    48    84     0  0.00     0     0    60     0 9.226 0.413  45.3     0     0   404   454  0.65  0.75 122.7  99.9 11.67  0.00  0.00  0.00  0.06  0.06  0.06   2.0  0.29  0.64  0.00  0.88
 1975  20    80    75   3.9 -15.0 15.61  5.61  0.17  1.99   1.7  0.22 0.017  0.24   181    16    33   133    48    85     0  0.00     0     0    61     0 9.474 0.419  45.7     0     0   409   454  0.66  0.75 123.6  99.9 15.00  0.00  0.00  0.00  0.05  0.05  0.05   2.0  0.22  0.61  0.00  0.88
 1975  21    81    76   5.1 -15.0 15.66  5.66  0.17  2.57   8.0  0.22 0.017  0.24   188    16    34   138    48    90     0  0.00     0     0    66     0 9.795 0.427  47.6     0     0   416   453  0.66  0.75 124.0  99.9 10.90  0.00  0.00  0.00  0.05  0.05  0.05   1.2  0.00  0.50  0.00  0.87
 1975  22    82    77   6.4 -15.0 15.73  5.73  0.17  2.57   0.4  0.22 0.017  0.24   188    16    34   138    49    89     0  0.00     0     0    65     0 10.21 0.438  47.0     0     0   424   453  0.67  0.75 124.2  99.9 15.00  0.00  0.00  0.00  0.05  0.05  0.05   1.1  0.00  0.36  0.00  0.86
 1975  23    83    78   4.9 -15.0 15.78  5.78  0.17  2.51   5.0  0.22 0.017  0.24   192    16    35   142    49    93     0  0.00     0     0    68     0 10.51 0.446  48.0     0     0   431   452  0.67  0.75 122.1  99.9 15.00  0.00  0.00  0.00  0.04  0.04  0.04   2.0  0.03  0.51  0.00  0.86
 1975  24    84    79   6.5 -15.0 15.84  5.84  0.17  2.59   7.8  0.23 0.017  0.24   199    16    36   147    50    97     0  0.00     0     0    73     0 10.93 0.458  49.2     0     0   440   452  0.68  0.75 125.0  99.9 11.58  0.00  0.00  0.00  0.04  0.04  0.04   0.8  0.00  0.35  0.00  0.85
 1975  25    85    80   7.8 -15.0 15.92  5.92  0.18  2.59   4.3  0.23 0.018  0.25   202    16    36   150    51    99     0  0.00     0     0    74     0 11.43 0.472  49.1     0     0   450   451  0.68  0.75 123.9  99.9 15.00  0.00  0.00  0.00  0.04  0.04  0.04   0.7  0.00  0.22  0.00  0.84
 1975  26    86    81   4.7 -15.0 15.97  5.97  0.18  2.42   9.0  0.23 0.018  0.25   210    16    38   157    51   105     0  0.00     0     0    80     0 11.73 0.480  50.9     0     0   456   451  0.69  0.75 128.1  99.9 10.25  0.00  0.00  0.00  0.05  0.05  0.05   2.0  0.06  0.53  0.00  0.84
 1975  27    87    82   4.2 -15.0 16.01  6.01  0.18  2.14   1.0  0.23 0.018  0.25   211    16    38   157    51   106     0  0.00     0     0    80     0 11.99 0.488  50.9     0     0   462   451  0.69  0.75 129.1  99.9 15.00  0.00  0.00  0.00  0.04  0.04  0.04   2.0  0.17  0.58  0.00  0.83
 1975  28    88    83   4.1 -15.0 16.05  6.05  0.18  2.12   0.6  0.23 0.018  0.25   211    16    38   157    52   106     0  0.00     0     0    80     0 12.36 0.496  50.9     0     0   467   450  0.69  0.75 129.9  99.9 15.00  0.00  0.00  0.00  0.04  0.04  0.04   2.0  0.18  0.59  0.00  0.82
 1975  29    89    84   5.7 -15.0 16.11  6.11  0.18  2.60   1.9  0.23 0.018  0.25   212    16    38   158    52   106     0  0.00     0     0    80     0 12.86 0.507  50.7     0     0   475   450  0.70  0.75 128.7  99.9 15.00  0.00  0.00  0.00  0.04  0.04  0.04   1.0  0.00  0.44  0.00  0.81
 1975  30    90    85   7.8 -15.0 16.18  6.18  0.18  2.61   5.9  0.24 0.018  0.26   217    16    39   162    53   108     0  0.00     0     0    82     0 13.57 0.522  50.7     0     0   485   448  0.70  0.75 127.4  99.9 15.00  0.00  0.00  0.00  0.04  0.04  0.04   0.4  0.00  0.22  0.00  0.81
 1975  31    91    86   9.5 -15.0 16.28  6.28  0.19  2.56   4.0  0.25 0.019  0.27   219    16    40   164    55   109     0  0.00     0     0    81     0 14.42 0.540  49.5     0     0   498   447  0.71  0.75 129.1  99.9 15.00  0.00  0.00  0.00  0.05  0.05  0.05   0.3  0.00  0.05  0.00  0.80
 1975  32    92    87   6.8 -15.0 16.35  6.35  0.19  2.48   6.1  0.25 0.019  0.27   224    16    41   168    56   112     0  0.00     0     0    84     0 15.03 0.554  50.0     0     0   506   446  0.72  0.75 127.1  99.9 15.00  0.00  0.00  0.00  0.08  0.08  0.08   0.7  0.00  0.32  0.00  0.79
 1975  33    93    88   4.5 -15.0 16.39  6.39  0.19  2.26   3.2  0.25 0.019  0.27   227    16    41   170    56   114     0  0.00     0     0    86     0 15.44 0.563  50.4     0     0   512   445  0.72  0.75 125.3  99.9 15.00  0.00  0.00  0.00  0.08  0.08  0.08   1.9  0.09  0.55  0.00  0.78
 1975  34    94    89   4.8 -15.0 16.44  6.44  0.19  2.37   3.0  0.25 0.020  0.27   229    16    41   172    56   115     0  0.00     0     0    87     0 15.87 0.573  50.7     0     0   518   445  0.72  0.75 119.6  99.9 15.00  0.00  0.00  0.00  0.08  0.08  0.08   1.1  0.05  0.52  0.00  0.77
 1975  35    95    90   3.5 -15.0 16.48  6.48  0.19  1.73   1.7  0.25 0.020  0.27   230    16    42   173    57   116     0  0.00     0     0    88     0 16.18 0.580  51.0     0     0   522   445  0.73  0.75 117.0  99.9 15.00  0.00  0.00  0.00  0.07  0.07  0.07   2.0  0.31  0.65  0.00  0.77
 1975  36    96    91   3.5 -15.0 16.51  6.51  0.19  1.74   5.0  0.25 0.020  0.27   234    16    42   176    57   119     0  0.00     0     0    91     0 16.49 0.587  51.9     0     0   527   444  0.73  0.75 115.9  99.9 15.00  0.00  0.00  0.00  0.07  0.07  0.07   1.6  0.31  0.65  0.00  0.76
 1975  37    97    92   2.5 -15.0 16.53  6.53  0.19  1.27   2.6  0.25 0.020  0.27   236    16    43   178    56   121     0  0.00     0     0    93     0 16.72 0.592  52.4     0     0   530   444  0.73  0.75 116.0  99.9 15.00  0.00  0.00  0.00  0.06  0.06  0.06   2.0  0.50  0.75  0.00  0.75
 1975  38    98    93   4.9 -15.0 16.58  6.58  0.19  2.49  10.1  0.25 0.020  0.27   245    16    44   185    57   128     0  0.00     0     0   100     0 17.16 0.603  54.0     0     0   537   444  0.74  0.75 116.1  99.9 11.27  0.00  0.00  0.00  0.06  0.06  0.06   0.7  0.02  0.51  0.00  0.74
 1975  39    99    94   3.6 -15.0 16.62  6.62  0.19  1.83   6.3  0.25 0.020  0.27   250    16    45   189    57   132     0  0.00     0     0   104     0 17.49 0.611  55.0     0     0   541   444  0.74  0.75 116.1  99.9 14.28  0.00  0.00  0.00  0.06  0.06  0.06   2.0  0.28  0.64  0.00  0.73
 1975  40   100    95   2.6 -15.0 16.65  6.65  0.19  1.35   7.2  0.25 0.020  0.27   256    16    46   194    57   138     0  0.00     0     0   109     0 17.73 0.617  56.3     0     0   545   443  0.74  0.75 115.8  99.9  9.73  0.00  0.00  0.00  0.06  0.06  0.06   2.0  0.47  0.74  0.00  0.73
 1975  41   101    96   2.9 -15.0 16.68  6.68  0.19  1.48   2.3  0.25 0.020  0.27   258    16    47   196    57   139     0  0.00     0     0   111     0 17.99 0.623  56.6     0     0   549   443  0.74  0.75 117.9  99.9 15.00  0.00  0.00  0.00  0.05  0.05  0.05   2.0  0.42  0.71  0.00  0.72
 1975  42   102    97   4.6 -15.0 21.00  6.72  0.19  2.34   2.3  0.25 0.020  0.27   260    16    47   197    57   140     0  0.00     0     0   112     0 18.40 0.634  56.7     0     0   555   443  0.75  0.75 122.7  99.9 15.00  0.00  0.00  0.00  0.05  0.05  0.05   1.2  0.09  0.54  0.00  0.71
 1975  43   103    98   7.6 -15.0 21.04  6.80  0.20  2.58   4.5  0.26 0.021  0.28   263    16    48   200    60   140     0  0.00     0     0   111     0 19.10 0.652  55.4     0     0   565   441  0.75  0.75 124.8  99.9 15.00  0.00  0.00  0.00  0.05  0.05  0.05   0.3  0.00  0.24  0.00  0.70
 1975  44   104    99   6.6 -15.0 21.07  6.86  0.20  2.48   7.4  0.27 0.021  0.29   269    16    49   205    61   144     0  0.00     0     0   113     0 19.69 0.668  55.4     0     0   573   441  0.76  0.75 125.8  99.9 15.00  0.00  0.00  0.00  0.08  0.08  0.08   0.4  0.00  0.34  0.00  0.69
 1975  45   105   100   3.0 -15.0 21.08  6.89  0.20  1.47   4.2  0.27 0.021  0.29   273    16    49   208    61   147     0  0.00     0     0   116     0 19.97 0.675  55.9     0     0   577   440  0.76  0.75 138.0  99.9 15.00  0.00  0.00  0.00  0.09  0.09  0.09   2.0  0.40  0.70  0.00  0.68
 1975  46   106   101   2.4 -15.0 21.09  6.92  0.20  1.18   1.8  0.27 0.021  0.29   274    16    50   209    61   148     0  0.00     0     0   117     0 20.18 0.681  56.1     0     0   580   440  0.76  0.75 136.3  99.9 15.00  0.00  0.00  0.00  0.09  0.09  0.09   2.0  0.52  0.76  0.00  0.67
 1975  47   107   102   3.5 -15.0 21.11  6.95  0.21  1.76   4.3  0.27 0.021  0.29   278    16    50   212    62   150     0  0.00     0     0   120     0 20.51 0.690  56.5     0     0   584   440  0.77  0.75 134.9  99.9 15.00  0.00  0.00  0.00  0.08  0.08  0.08   1.1  0.29  0.64  0.00  0.67
 1975  48   108   103   5.7 -15.0 21.14  7.01  0.21  2.49   2.6  0.28 0.022  0.30   280    16    51   213    63   151     0  0.00     0     0   119     0 21.02 0.704  56.0     0     0   591   439  0.77  0.75 135.4  99.9 15.00  0.00  0.00  0.00  0.08  0.08  0.08   0.5  0.00  0.44  0.00  0.66
 1975  49   109   104   4.9 -15.0 21.16  7.06  0.21  2.42   5.8  0.28 0.022  0.30   284    16    51   217    64   154     0  0.00     0     0   122     0 21.44 0.716  56.2     0     0   598   438  0.78  0.75 140.7  99.9 15.00  0.00  0.00  0.00  0.09  0.09  0.09   0.7  0.02  0.51  0.00  0.65
 1975  50   110   105   4.4 -15.0 21.18  7.10  0.21  2.17  14.7  0.28 0.022  0.30   297    16    54   228    64   164     0  0.00     0     0   132     0 21.81 0.728  57.7     0     0   603   438  0.78  0.75 137.9  99.9  8.23  0.00  0.00  0.00  0.09  0.09  0.09   0.6  0.12  0.56  0.00  0.64
 1975  51   111   106   4.2 -15.0 21.20  7.14  0.21  2.10  15.2  0.28 0.023  0.31   311    16    56   239    65   174     0  0.00     0     0   142     0 22.17 0.739  59.3     0     0   609   437  0.78  0.75 129.5  99.9  7.97  0.00  0.00  0.00  0.09  0.09  0.09   0.6  0.15  0.57  0.00  0.63
 1975  52   112   107   3.4 -15.0 21.21  7.18  0.22  1.70  12.4  0.29 0.023  0.31   321    16    58   248    65   183     0  0.00     0     0   150     0 22.46 0.749  60.5     0     0   613   437  0.79  0.75 125.5  99.9  8.51  0.00  0.00  0.00  0.09  0.09  0.09   0.9  0.31  0.66  0.00  0.62
 1975  53   113   108   4.1 -15.0 21.23  7.22  0.22  2.03  14.0  0.29 0.023  0.31   334    16    60   258    66   192     0  0.00     0     0   159     0 22.81 0.760  61.8     0     0   618   436  0.79  0.75 124.8  99.9  8.94  0.00  0.00  0.00  0.08  0.08  0.08   0.7  0.18  0.59  0.00  0.61
 1975  54   114   109   5.1 -15.0 21.26  7.27  0.22  2.48  16.1  0.29 0.023  0.32   348    16    62   270    67   203     0  0.00     0     0   169     0 23.25 0.776  62.8     0     0   625   435  0.79  0.75 124.6  99.9  9.58  0.00  0.00  0.00  0.08  0.08  0.08   0.5  0.00  0.49  0.00  0.61
 1975  55   115   110   5.0 -15.0 21.28  7.32  0.22  2.43  21.7  0.30 0.024  0.32   367    16    65   286    68   218     0  0.00     0     0   184     0 23.67 0.791  64.4     0     0   631   435  0.80  0.75 124.1  99.9  7.31  0.00  0.00  0.00  0.09  0.09  0.09   0.6  0.01  0.50  0.00  0.60
 1975  56   116   111   2.4 -15.0 21.29  7.34  0.22  1.15   2.4  0.30 0.024  0.32   369    16    66   287    68   219     0  0.00     0     0   185     0 23.87 0.799  64.5     0     0   634   434  0.80  0.75 124.2  99.9 15.00  0.00  0.00  0.00  0.09  0.09  0.09   2.0  0.53  0.76  0.00  0.59
 1975  57   117   112   5.1 -15.0 21.31  7.40  0.23  2.46  20.3  0.30 0.024  0.32   387    16    69   302    69   233     0  0.00     0     0   199     0 24.30 0.816  65.7     0     0   640   434  0.80  0.75 123.9  99.9  8.47  0.00  0.00  0.00  0.09  0.09  0.09   0.5  0.00  0.49  0.00  0.58
 1975  58   118   113   3.7 -15.0 21.33  7.43  0.23  1.78  20.7  0.30 0.024  0.33   405    16    72   317    70   248     0  0.00     0     0   213     0 24.62 0.828  67.2     0     0   645   433  0.81  0.75 123.0  99.9  6.43  0.00  0.00  0.00  0.10  0.10  0.10   1.0  0.27  0.63  0.00  0.57
 1975  59   119   114   4.6 -15.0 21.35  7.48  0.23  2.26  21.7  0.30 0.024  0.33   424    16    75   333    70   263     0  0.00     0     0   228     0 25.01 0.845  68.4     0     0   651   433  0.81  0.75 122.5  99.9  7.92  0.00  0.00  0.00  0.09  0.09  0.09   0.7  0.08  0.54  0.00  0.56
 1975  60   120   115   7.0 -15.0 21.38  7.55  0.23  2.46  12.1  0.31 0.025  0.34   434    16    77   342    73   269     0  0.00     0     0   233     0 25.60 0.871  68.2     0     0   660   432  0.82  0.75 122.7  99.9 15.00  0.00  0.00  0.00  0.09  0.09  0.09   0.4  0.00  0.30  0.00  0.55
 1975  61   121   116   7.3 -15.0 21.43  7.62  0.24  2.41  10.7  0.32 0.026  0.35   443    16    78   349    75   274     0  0.00     0     0   237     0 26.23 0.899  67.8     0     0   673   430  0.82  0.75 126.7  99.9 15.00  0.00  0.00  0.00  0.11  0.11  0.11   0.5  0.00  0.27  0.00  0.54
 1975  62   122   117   8.8 -15.0 21.49  7.71  0.25  2.37  11.4  0.34 0.027  0.37   453    16    80   357    79   278     0  0.00     0     0   239     0 26.98 0.933  67.0     0     0   689   429  0.83  0.75 127.4  99.9 15.00  0.00  0.00  0.00  0.12  0.12  0.12   0.3  0.00  0.12  0.00  0.54
 1975  63   123   118   6.8 -15.0 21.53  7.78  0.25  2.29  16.9  0.35 0.028  0.37   467    16    82   369    81   289     0  0.00     0     0   248     0 27.57 0.960  67.3     0     0   701   428  0.83  0.75 134.1  99.9 10.90  0.00  0.00  0.00  0.15  0.15  0.15   0.5  0.00  0.32  0.00  0.53
 1975  64   124   119   6.1 -15.0 21.57  7.84  0.26  2.28   6.1  0.35 0.028  0.38   472    16    83   373    82   291     0  0.00     0     0   250     0 28.09 0.985  67.0     0     0   712   427  0.84  0.75 134.7  99.9 15.00  0.00  0.00  0.00  0.16  0.16  0.16   0.7  0.00  0.39  0.00  0.52
 1975  65   125   120   6.9 -15.0 21.61  7.91  0.26  2.29   8.0  0.36 0.029  0.39   479    16    85   379    84   294     0  0.00     0     0   253     0 28.69 1.014  66.7     0     0   724   426  0.84  0.75 140.5  99.9 15.00  0.00  0.00  0.00  0.15  0.15  0.15   0.5  0.00  0.31  0.00  0.51
 1975  66   126   121   7.1 -15.0 21.66  7.98  0.27  2.28  10.5  0.37 0.030  0.40   488    16    86   386    86   300     0  0.00     0     0   257     0 29.31 1.044  66.5     0     0   736   425  0.85  0.75 148.3  99.9 15.00  0.00  0.00  0.00  0.16  0.16  0.16   0.5  0.00  0.29  0.00  0.50
 1975  67   127   122   4.5 -15.0 21.69  8.02  0.27  2.04   9.3  0.37 0.030  0.40   496    16    87   393    87   305     0  0.00     0     0   262     0 29.70 1.064  66.8     0     0   744   425  0.85  0.75 155.9  99.9 15.00  0.00  0.00  0.00  0.16  0.16  0.16   0.9  0.10  0.55  0.00  0.49
 1975  68   128   123   4.8 -15.0 21.72  8.07  0.27  2.18   8.2  0.37 0.030  0.40   503    16    89   398    88   310     0  0.00     0     0   267     0 30.14 1.084  66.9     0     0   753   424  0.86  0.75 153.5  99.9 15.00  0.00  0.00  0.00  0.15  0.15  0.15   0.7  0.05  0.52  0.00  0.49
 1975  69   129   124   3.2 -15.0 21.74  8.10  0.27  1.50   5.1  0.37 0.031  0.41   507    16    89   402    88   313     0  0.00     0     0   270     0 30.44 1.099  67.1     0     0   758   424  0.86  0.75 150.8  99.9 15.00  0.00  0.00  0.00  0.15  0.15  0.15   1.3  0.35  0.68  0.00  0.48
 1975  70   130   125   4.0 -15.0 21.76  8.14  0.27  1.86   7.4  0.38 0.031  0.41   513    16    90   407    89   318     0  0.00     0     0   274     0 30.81 1.117  67.3     0     0   766   423  0.86  0.75 155.3  99.9 15.00  0.00  0.00  0.00  0.14  0.14  0.14   0.8  0.20  0.60  0.00  0.47
 1975  71   131   126   4.8 -15.0 21.80  8.19  0.28  2.25   1.5  0.38 0.031  0.41   514    16    91   408    90   318     0  0.00     0     0   273     0 31.25 1.138  67.0     0     0   774   423  0.87  0.75 156.5  99.9 15.00  0.00  0.00  0.00  0.13  0.13  0.13   0.7  0.04  0.52  0.00  0.46
 1975  72   132   127   3.7 -15.0 21.82  8.23  0.28  1.75   1.9  0.38 0.031  0.41   515    16    91   409    90   318     0  0.00     0     0   274     0 31.60 1.155  66.9     0     0   781   422  0.87  0.75 159.1  99.9 15.00  0.00  0.00  0.00  0.13  0.13  0.13   1.2  0.26  0.63  0.00  0.45
 1975  73   133   128   3.0 -15.0 21.84  8.26  0.28  1.45   9.5  0.38 0.031  0.41   524    16    92   416    91   325     0  0.00     0     0   280     0 31.88 1.169  67.4     0     0   787   422  0.87  0.76 156.1  99.9 15.00  0.00  0.00  0.00  0.12  0.12  0.12   1.1  0.39  0.69  0.00  0.44
 1975  74   134   129   2.6 -15.0 21.86  8.28  0.28  1.25   5.4  0.38 0.031  0.41   528    16    93   419    91   329     0  0.00     0     0   284     0 32.12 1.181  67.6     0     0   791   422  0.88  0.76 154.3  99.9 15.00  0.00  0.00  0.00  0.11  0.11  0.11   1.4  0.48  0.74  0.00  0.44
 1975  75   135   130   3.0 -15.0 21.88  8.31  0.28  1.43  19.6  0.38 0.032  0.42   546    16    96   434    91   343     0  0.00     0     0   298     0 32.40 1.195  68.6     0     0   797   422  0.88  0.76 151.1  99.9  9.56  0.00  0.00  0.00  0.10  0.10  0.10   0.8  0.41  0.70  0.00  0.43
 1975  76   136   131   2.1 -15.0 21.89  8.33  0.28  1.05  14.4  0.38 0.032  0.42   559    16    98   445    91   354     0  0.00     0     0   308     0 32.60 1.205  69.4     0     0   801   421  0.88  0.76 143.0  99.9  8.04  0.00  0.00  0.00  0.10  0.10  0.10   1.2  0.57  0.79  0.00  0.42
 1975  77   137   132   2.0 -15.0 21.91  8.36  0.28  1.00  15.7  0.38 0.032  0.42   572    16   100   456    91   365     0  0.00     0     0   320     0 32.79 1.215  70.1     0     0   805   421  0.88  0.76 141.5  99.9  7.30  0.00  0.00  0.00  0.09  0.09  0.09   1.0  0.59  0.80  0.00  0.41
 1975  78   138   133   1.5 -15.0 21.92  8.37  0.28  0.71   2.3  0.38 0.032  0.42   574    16   101   458    91   367     0  0.00     0     0   322     0 32.92 1.222  70.2     0     0   807   421  0.88  0.76 140.8  99.9 15.00  0.00  0.00  0.00  0.09  0.09  0.09   2.0  0.71  0.86  0.00  0.40
 1975  79   139   134   2.5 -15.0 21.93  8.40  0.28  1.26   1.4  0.38 0.032  0.42   575    16   101   459    91   368     0  0.00     0     0   322     0 33.16 1.235  70.2     0     0   812   421  0.89  0.76 140.5  99.9 15.00  0.00  0.00  0.00  0.08  0.08  0.08   1.4  0.49  0.75  0.00  0.40
 1975  80   140   135   4.8 -15.0 21.97  8.44  0.28  2.42  11.1  0.39 0.032  0.42   585    16   102   467    92   374     0  0.00     0     0   329     0 33.61 1.260  70.4     0     0   822   420  0.89  0.76 149.6  99.9 15.00  0.00  0.00  0.00  0.08  0.08  0.08   0.5  0.03  0.51  0.00  0.39
 1975  81   141   136   4.6 -15.0 22.00  8.49  0.28  2.25  17.1  0.39 0.032  0.42   600    16   105   479    93   386     0  0.00     0     0   340     0 34.04 1.283  70.9     0     0   830   420  0.89  0.76 149.5  99.9 14.51  0.00  0.00  0.00  0.08  0.08  0.08   0.5  0.09  0.54  0.00  0.38
 1975  82   142   137   5.9 -15.0 22.04  8.55  0.29  2.47  25.6  0.40 0.033  0.43   623    16   108   498    95   403     0  0.00     0     0   356     0 34.59 1.314  71.4     0     0   842   419  0.90  0.76 148.4  99.9 10.49  0.00  0.00  0.00  0.09  0.09  0.09   0.3  0.00  0.41  0.00  0.37
 1975  83   143   138   5.8 -15.0 22.08  8.61  0.29  2.43  29.7  0.41 0.034  0.44   649    16   113   520    98   423     0  0.00     0     0   374     0 35.13 1.345  71.9     0     0   852   418  0.90  0.76 143.8  99.9  9.29  0.00  0.00  0.00  0.10  0.10  0.10   0.3  0.00  0.43  0.00  0.36
 1975  84   144   139   4.6 -15.0 22.11  8.65  0.30  2.21  31.1  0.41 0.034  0.45   676    16   117   543    99   445     0  0.00     0     0   395     0 35.56 1.371  72.7     0     0   861   417  0.91  0.76 141.5  99.9  8.58  0.00  0.00  0.00  0.12  0.12  0.12   0.4  0.07  0.54  0.00  0.36
 1975  85   145   140   5.2 -15.0 22.14  8.70  0.30  2.36  11.2  0.42 0.035  0.45   686    16   119   551   101   451     0  0.00     0     0   401     0 36.05 1.402  72.6     0     0   870   416  0.91  0.76 147.0  99.9 15.00  0.00  0.00  0.00  0.13  0.13  0.13   0.4  0.00  0.48  0.00  0.35
 1975  86   146   141   2.2 -15.0 22.16  8.73  0.30  1.03   8.3  0.42 0.035  0.46   693    16   120   558   101   457     0  0.00     0     0   406     0 36.26 1.415  72.9     0     0   874   416  0.91  0.76 153.6  99.9 15.00  0.00  0.00  0.00  0.13  0.13  0.13   1.4  0.56  0.78  0.00  0.34
 1975  87   147   142   1.4 -15.0 22.17  8.74  0.30  0.68  16.2  0.42 0.035  0.46   708    16   122   570   101   469     0  0.00     0     0   419     0 36.39 1.424  73.5     0     0   877   416  0.91  0.76 151.4  99.9  5.96  0.00  0.00  0.00  0.13  0.13  0.13   1.1  0.71  0.86  0.00  0.33
 1975  88   148   143   2.8 -15.0 22.18  8.77  0.30  1.31  18.8  0.42 0.035  0.46   725    16   125   584   101   482     0  0.00     0     0   432     0 36.65 1.441  74.0     0     0   882   416  0.92  0.76 151.2  99.9  9.63  0.00  0.00  0.00  0.12  0.12  0.12   0.7  0.45  0.73  0.00  0.33
 1975  89   149   144   2.1 -15.0 22.20  8.79  0.30  1.00  16.3  0.42 0.035  0.46   739    16   127   596   101   494     0  0.00     0     0   444     0 36.85 1.454  74.5     0     0   886   416  0.92  0.76 152.0  99.9 11.56  0.00  0.00  0.00  0.12  0.12  0.12   1.0  0.58  0.79  0.00  0.32
 1975  90   150   145   3.4 -15.0 22.22  8.82  0.30  1.61  24.8  0.42 0.035  0.46   761    16   131   614   102   512     0  0.00     0     0   462     0 37.16 1.475  75.1     0     0   892   415  0.92  0.76 150.7  99.9  9.16  0.00  0.00  0.00  0.11  0.11  0.11   0.6  0.33  0.66  0.00  0.31
 1975  91   151   146   4.2 -15.0 22.25  8.86  0.30  2.00  28.1  0.43 0.036  0.46   786    16   135   635   103   532     0  0.00     0     0   481     0 37.55 1.502  75.7     0     0   900   415  0.92  0.76 152.6  99.9 10.16  0.00  0.00  0.00  0.11  0.11  0.11   0.5  0.17  0.58  0.00  0.31
 1975  92   152   147   4.9 -15.0 22.28  8.91  0.31  2.35  30.5  0.43 0.036  0.47   813    16   139   658   105   553     0  0.00     0     0   501     0 38.01 1.535  76.2     0     0   909   414  0.93  0.76 152.6  99.9 11.22  0.00  0.00  0.00  0.11  0.11  0.11   0.4  0.02  0.51  0.00  0.30
 1975  93   153   148   2.5 -15.0 22.30  8.94  0.31  1.19  14.3  0.43 0.036  0.47   826    16   141   669   105   564     0  0.00     0     0   511     0 38.25 1.553  76.5     0     0   913   414  0.93  0.76 156.3  99.9 13.31  0.00  0.00  0.00  0.12  0.12  0.12   1.2  0.50  0.75  0.00  0.29
 1975  94   154   149   2.5 -15.0 22.31  8.96  0.31  1.20  17.4  0.44 0.037  0.47   841    16   144   682   105   576     0  0.00     0     0   524     0 38.48 1.570  76.9     0     0   918   414  0.93  0.76 154.9  99.9 11.16  0.00  0.00  0.00  0.11  0.11  0.11   0.9  0.50  0.75  0.00  0.28
 1975  95   155   150   1.9 -15.0 22.33  8.98  0.31  0.89  12.6  0.44 0.037  0.47   853    16   146   691   105   586     0  0.00     0     0   533     0 38.66 1.584  77.2     0     0   921   413  0.93  0.76 158.2  99.9 14.89  0.00  0.00  0.00  0.11  0.11  0.11   1.4  0.63  0.81  0.00  0.28
 1975  96   156   151   3.4 -15.0 22.35  9.02  0.31  1.68  27.3  0.44 0.037  0.48   877    16   149   712   106   606     0  0.00     0     0   553     0 38.98 1.609  77.7     0     0   928   413  0.94  0.76 156.1  99.9  9.93  0.00  0.00  0.00  0.10  0.10  0.10   0.6  0.31  0.66  0.00  0.27
 1975  97   157   152   4.1 -15.0 22.38  9.06  0.31  1.99  25.1  0.44 0.037  0.48   899    16   153   730   107   623     0  0.00     0     0   570     0 39.49 1.639  78.0     0     0   935   412  0.94  0.76 156.8  99.9 12.84  0.00  0.00  0.00  0.10  0.10  0.10   0.5  0.18  0.59  0.00  0.26
 1975  98   158   153   3.2 -15.0 22.40  9.09  0.31  1.55  35.0  0.44 0.037  0.48   930    16   158   757   108   649     0  0.00     0     0   595     0 39.88 1.664  78.6     0     0   941   412  0.94  0.76 158.9  99.9  7.63  0.00  0.00  0.00  0.10  0.10  0.10   0.7  0.36  0.68  0.00  0.26
 1975  99   159   154   1.6 -15.0 22.41  9.11  0.31  0.80  16.8  0.44 0.037  0.48   945    16   160   769   108   661     0  0.00     0     0   608     0 40.08 1.677  79.0     0     0   944   412  0.94  0.76 156.5  99.9  8.87  0.00  0.00  0.00  0.10  0.10  0.10   1.6  0.67  0.84  0.00  0.25
 1975 100   160   155   2.9 -15.0 22.43  9.14  0.32  1.42  25.2  0.45 0.038  0.48   968    16   164   788   108   680     0  0.00     0     0   626     0 40.44 1.700  79.4     0     0   950   411  0.95  0.76 156.1  99.9 10.15  0.00  0.00  0.00  0.09  0.09  0.09   0.8  0.42  0.71  0.00  0.24
 1975 101   161   156   6.6 -15.0 22.47  9.20  0.32  2.46  28.3  0.46 0.039  0.50   993    16   168   809   112   697     0  0.00     0     0   641     0 41.25 1.754  79.3     0     0   962   410  0.95  0.77 154.9  99.9 14.43  0.00  0.00  0.00  0.09  0.09  0.09   0.3  0.00  0.34  0.00  0.24
 1975 102   162   157  10.3 -15.0 22.54  9.30  0.34  2.39  44.3  0.49 0.042  0.53  1031    16   174   842   121   721     0  0.00     0     0   660     0 42.52 1.840  78.5     0     0   981   407  0.96  0.76 150.7  99.9  8.30  0.00  0.00  0.00  0.12  0.12  0.12   0.1  0.00  0.00  0.00  0.23
 1975 103   163   158   9.9 -15.0 22.60  9.40  0.36  2.19  37.0  0.52 0.045  0.56  1063    16   179   868   128   740     0  0.00     0     0   675     0 43.75 1.927  77.8     0     0   998   405  0.97  0.76 151.6  99.9  9.48  0.00  0.00  0.00  0.19  0.19  0.19   0.1  0.00  0.00  0.00  0.23
 1975 104   164   159  10.1 -15.0 22.66  9.50  0.37  2.05  19.4  0.55 0.047  0.59  1080    16   182   882   136   746     0  0.00     0     0   678     0 45.01 2.017  76.9     0     0  1014   403  0.98  0.75 156.8  99.9 15.00  0.00  0.00  0.00  0.24  0.24  0.24   0.2  0.00  0.00  0.00  0.22
 1975 105   165   160   9.0 -15.0 22.71  9.59  0.38  1.96  22.6  0.57 0.049  0.62  1099    16   185   898   141   756     0  0.00     0     0   686     0 46.13 2.099  76.4     0     0  1027   402  0.98  0.75 158.8  99.9 15.00  0.00  0.00  0.00  0.28  0.28  0.28   0.2  0.00  0.10  0.00  0.21
 1975 106   166   161   8.4 -15.0 22.75  9.68  0.39  1.89  48.5  0.58 0.051  0.63  1141    16   193   933   146   787     0  0.00     0     0   714     0 47.19 2.177  76.5     0     0  1040   400  0.99  0.75 161.0  99.9  6.92  0.00  0.00  0.00  0.30  0.30  0.30   0.2  0.00  0.16  0.00  0.21
 1975 107   167   162   9.8 -15.0 22.80  9.78  0.40  1.83  16.1  0.60 0.053  0.66  1154    16   195   944   152   792     0  0.00     0     0   716     0 48.42 2.271  75.9     0     0  1053   399  1.00  0.75 161.8  99.9 15.00  0.00  0.00  0.00  0.32  0.32  0.32   0.2  0.00  0.02  0.00  0.20
 1975 108   168   163  12.4 -15.0 22.86  9.90  0.42  1.78  47.9  0.63 0.056  0.69  1196    16   202   978   159   819     0  0.00     0     0   738     0 49.98 2.392  75.5     0     0  1070   397  1.01  0.75 171.3  99.9  6.35  0.00  0.00  0.00  0.34  0.34  0.34   0.1  0.00  0.00  0.00  0.20
 1975 109   169   164  11.4 -15.0 22.92 10.01  0.43  1.68  36.7  0.66 0.058  0.71  1227    16   208  1003   166   838     0  0.00     0     0   754     0 51.42 2.507  75.1     0     0  1085   396  1.02  0.74 163.7  99.9  8.40  0.00  0.00  0.00  0.38  0.38  0.38   0.1  0.00  0.00  0.00  0.19
 1975 110   170   165   8.9 -15.0 22.96 10.10  0.44  1.61  51.1  0.68 0.060  0.74  1271    16   216  1040   171   868     0  0.00     0     0   782     0 52.97 2.599  75.2     0     0  1096   394  1.03  0.74 159.7  99.9  6.21  0.00  0.00  0.00  0.40  0.40  0.40   0.1  0.00  0.11  0.00  0.19
 1975 111   171   166  11.0 -15.0 23.00 10.21  0.45  1.55  40.7  0.70 0.063  0.76  1305    16   222  1068   179   889     0  0.00     0     0   798     0 54.91 2.718  74.8     0     0  1109   392  1.03  0.74 158.8  99.9  7.47  0.00  0.00  0.00  0.42  0.42  0.42   0.2  0.00  0.00  0.00  0.18
 1975 112   172   167  12.8 -15.0 23.06 10.34  0.47  1.49  57.6  0.74 0.066  0.80  1355    16   231  1108   189   919     0  0.00     0     0   823     0 57.17 2.860  74.2     0     0  1124   390  1.04  0.74 157.3  99.9  4.93  0.00  0.00  0.00  0.45  0.45  0.45   0.1  0.00  0.00  0.00  0.17
 1975 113   173   168  11.8 -15.0 23.10 10.46  0.48  1.39  38.5  0.77 0.069  0.84  1387    16   237  1135   198   937     0  0.00     0     0   836     0 59.24 2.996  73.7     0     0  1136   388  1.05  0.74 156.6  99.9  7.48  0.00  0.00  0.00  0.49  0.49  0.49   0.1  0.00  0.00  0.00  0.17
 1975 114   174   169  11.9 -15.0 23.15 10.58  0.49  1.34  61.9  0.80 0.072  0.87  1440    16   246  1178   206   972     0  0.00     0     0   866     0 61.35 3.136  73.5     0     0  1149   387  1.06  0.74 155.3  99.9  4.49  0.00  0.00  0.00  0.50  0.50  0.50   0.1  0.00  0.00  0.00  0.16
 1975 115   175   170  11.6 -15.0 23.19 10.69  0.50  1.27  29.1  0.82 0.075  0.90  1464    16   251  1197   214   984     0  0.00     0     0   874     0 63.43 3.280  73.0     0     0  1160   385  1.07  0.73 156.0  99.9  9.61  0.00  0.00  0.00  0.53  0.53  0.53   0.1  0.00  0.00  0.00  0.16
 1975 116   176   171  13.9 -15.0 23.24 10.83  0.52  1.23  36.0  0.85 0.078  0.93  1493    16   256  1221   222   999     0  0.00     0     0   885     0 65.91 3.455  72.5     0     0  1173   383  1.09  0.73 155.6  99.9  7.36  0.00  0.00  0.00  0.54  0.54  0.54   0.1  0.00  0.00  0.00  0.15
 1975 117   177   172  10.6 -15.0 23.27 10.94  0.52  1.18   7.9  0.87 0.080  0.95  1498    16   257  1225   229   996     0  0.00     0     0   880     0 67.81 3.590  71.9     0     0  1183   382  1.09  0.73 156.4  99.9 15.00  0.00  0.00  0.00  0.56  0.56  0.56   0.1  0.00  0.00  0.00  0.15
 1975 118   178   173  13.8 -15.0 23.32 11.08  0.54  1.17  42.0  0.91 0.084  1.00  1534    16   264  1254   240  1014     0  0.00     0     0   893     0 69.48 3.769  71.2     0     0  1195   381  1.11  0.73 155.9  99.9  6.11  0.00  0.00  0.00  0.57  0.57  0.57   0.1  0.00  0.00  0.00  0.14
 1975 119   179   174   9.6 -15.0 23.35 11.17  0.55  1.11  39.1  0.93 0.086  1.02  1566    16   270  1281   246  1034     0  0.00     0     0   909     0 72.04 3.895  71.0     0     0  1204   379  1.11  0.73 155.6  99.9  7.22  0.00  0.00  0.00  0.59  0.59  0.59   0.1  0.00  0.04  0.00  0.14
 1975 120   180   175   7.9 -15.0 23.37 11.25  0.55  1.08  49.8  0.94 0.088  1.03  1609    16   278  1315   250  1065     0  0.00     0     0   938     0 74.17 4.003  71.3     0     0  1210   378  1.12  0.73 155.7  99.9  5.79  0.00  0.00  0.00  0.60  0.60  0.60   0.1  0.00  0.21  0.00  0.13
 1975 121   181   176  10.1 -15.0 23.40 11.35  0.55  1.07  26.0  0.95 0.088  1.03  1625    16   282  1328   251  1076     0  0.00     0     0   948     0 80.37 4.142  71.4     0     0  1219   376  1.13  0.73 155.4  99.9 10.78  0.00  0.00  0.00  0.60  0.60  0.60   0.2  0.00  0.00  0.00  0.13
 1975 122   182   177  12.7 -15.0 23.44 11.48  0.56  1.06  35.6  0.95 0.089  1.04  1650    16   287  1347   254  1093     0  0.00     0     0   962     0 87.30 4.321  71.4     0     0  1229   375  1.14  0.73 159.7  99.9  7.43  0.00  0.00  0.00  0.61  0.61  0.61   0.1  0.00  0.00  0.00  0.13
 1975 123   183   178   7.3 -15.0 23.46 11.55  0.55  1.04  50.9  0.94 0.089  1.03  1690    16   295  1379   252  1127     0  0.00     0     0   997     0 92.82 4.426  72.3     0     0  1235   374  1.14  0.74 157.9  99.9  5.90  0.00  0.00  0.00  0.61  0.61  0.61   0.2  0.00  0.27  0.00  0.12
 1975 124   184   179   7.5 -15.0 23.48 11.63  0.55  1.06  58.4  0.93 0.088  1.02  1737    16   304  1416   250  1166     0  0.00     0     0  1036     0 98.37 4.538  73.1     0     0  1241   373  1.15  0.74 156.1  97.0  5.39  0.00  0.00  0.00  0.61  0.61  0.61   0.2  0.00  0.25  0.00  0.12
 1975 125   185   180   8.2 -15.0 23.50 11.71  0.55  1.07  50.3  0.94 0.089  1.03  1778    16   312  1450   252  1198     0  0.00     0     0  1066     0 101.9 4.663  73.5     0     0  1248   372  1.16  0.74 154.8  99.9  6.37  0.00  0.00  0.00  0.60  0.60  0.60   0.2  0.00  0.18  0.00  0.11
 1975 126   186   181   9.5 -15.0 23.53 11.81  0.56  1.08  53.2  0.97 0.093  1.06  1826    16   320  1489   262  1228     0  0.00     0     0  1090     0 101.9 4.811  73.2     0     0  1256   371  1.17  0.74 153.5  99.9  6.03  0.00  0.00  0.00  0.60  0.60  0.60   0.1  0.00  0.05  0.00  0.11
 1975 127   187   182  10.6 -15.0 23.53 11.91  0.57  1.07  26.1  0.99 0.095  1.08  1845    16   324  1505   267  1238     0  0.00     0     0  1097     0 105.5 4.980  72.9     0     0  1256   369  1.17  0.74 165.9  99.9 12.17  0.00  0.00  0.00  0.60  0.60  0.60   0.1  0.00  0.00  0.00  0.00
 1975 128   188   183  12.2 -15.0 23.53 12.03  0.58  1.04  51.7  1.01 0.098  1.11  1888    16   332  1540   275  1264     0  0.00     0     0  1119     0 109.2 5.178  72.6     0     0  1256   368  1.18  0.74 164.3  98.9  5.74  0.00  0.00  0.00  0.62  0.62  0.62   0.1  0.00  0.00  0.00  0.00
 1975 129   189   184  10.3 -15.0 23.53 12.14  0.59  1.02  50.7  1.03 0.101  1.14  1928    16   340  1573   283  1290     0  0.00     0     0  1140     0 113.6 5.349  72.5     0     0  1256   366  1.19  0.74 162.6  99.9  6.15  0.00  0.00  0.00  0.62  0.62  0.62   0.2  0.00  0.00  0.00  0.00
 1975 130   190   185  11.0 -15.0 23.53 12.25  0.59  1.00  50.5  1.06 0.104  1.16  1969    16   347  1606   290  1316     0  0.00     0     0  1160     0 118.2 5.535  72.2     0     0  1256   364  1.20  0.74 161.3  99.3  6.15  0.00  0.00  0.00  0.63  0.63  0.63   0.1  0.00  0.00  0.00  0.00
 1975 131   191   186   9.2 -15.0 23.53 12.34  0.60  0.98  33.6  1.07 0.106  1.17  1994    16   352  1626   295  1332     0  0.00     0     0  1173     0 122.8 5.696  72.1     0     0  1256   363  1.21  0.74 160.4  99.9  9.73  0.00  0.00  0.00  0.64  0.64  0.64   0.1  0.00  0.07  0.00  0.00
 1975 132   192   187   7.2 -15.0 23.53 12.41  0.60  0.98  25.3  1.07 0.106  1.18  2013    16   356  1641   296  1345     0  0.00     0     0  1185     0 126.8 5.823  72.2     0     0  1256   362  1.22  0.75 165.2  99.9 13.56  0.00  0.00  0.00  0.64  0.64  0.64   0.2  0.00  0.27  0.00  0.00
 1975 133   193   188  11.0 -15.0 30.02 12.52  0.60  1.00  35.1  1.08 0.109  1.19  2040    16   361  1663   304  1359     0  0.00     0     0  1194     0 130.9 6.018  71.8     0     0  1156   355  1.22  0.75 165.5  99.9  9.24  0.00  0.00  0.00  0.63  0.63  0.63   0.1  0.00  0.00  0.00  0.00
 1975 134   194   189  10.1 -15.0 30.48 12.62  0.60  0.98  30.2  1.08 0.112  1.20  2063    16   366  1682   311  1371     0  0.00     0     0  1202     0 135.1 6.202  71.4     0     0  1073   348  1.23  0.75 164.9  99.9 10.88  0.00  0.00  0.00  0.64  0.64  0.64   0.1  0.00  0.00  0.00  0.00
 1975 135   195   190   8.4 -15.0 30.85 12.71  0.60  0.97  15.2  1.07 0.113  1.19  2072    16   368  1689   313  1376     0  0.00     0     0  1206     0 139.4 6.356  71.4     0     0  1011   344  1.24  0.75 165.2  99.9 15.00  0.00  0.00  0.00  0.64  0.64  0.64   0.2  0.00  0.16  0.00  0.00
 1975 136   196   191   6.9 -15.0 31.16 12.78  0.59  0.99   8.6  1.06 0.112  1.17  2076    16   369  1691   312  1379     0  0.00     0     0  1209     0 143.6 6.483  71.5     0     0   964   340  1.24  0.75 187.7  99.9 15.00  0.00  0.00  0.00  0.63  0.63  0.63   0.2  0.00  0.31  0.00  0.00
 1975 137   197   192   7.2 -15.0 31.48 12.85  0.59  1.02   4.2  1.05 0.112  1.16  2075    16   369  1690   312  1378     0  0.00     0     0  1209     0 147.9 6.615  71.5     0     0   919   336  1.25  0.75 203.5  99.9 15.00  0.00  0.00  0.00  0.62  0.62  0.62   0.4  0.00  0.28  0.00  0.00
 1975 138   198   193   8.4 -15.0 31.85 12.93  0.59  1.07  17.0  1.04 0.113  1.16  2086    16   372  1699   314  1385     0  0.00     0     0  1213     0 152.2 6.769  71.4     0     0   870   332  1.26  0.76 203.7  99.9 15.00  0.00  0.00  0.00  0.60  0.60  0.60   0.3  0.00  0.16  0.00  0.00
 1975 139   199   194  10.2 -15.0 32.30 13.03  0.60  1.10  87.5  1.07 0.119  1.19  2165    16   384  1765   327  1438     0  0.00     0     0  1254     0 152.2 6.959  71.1     0     0   815   328  1.27  0.76 197.2  77.3  4.28  0.00  0.00  0.00  0.59  0.59  0.59   0.1  0.00  0.00  0.00  0.00
 1975 140   200   195  11.8 -15.0 32.82 13.15  0.60  1.07  75.5  1.08 0.123  1.20  2228    16   395  1817   334  1483     0  0.00     0     0  1291     0 157.4 7.185  71.1     0     0   758   323  1.28  0.76 193.5  82.0  4.79  0.00  0.00  0.00  0.60  0.60  0.60   0.1  0.00  0.00  0.00  0.00
 1975 141   201   196  11.7 -15.0 33.34 13.27  0.60  1.03  72.2  1.09 0.127  1.21  2288    16   405  1868   341  1526     0  0.00     0     0  1326     0 161.9 7.416  71.0     0     0   707   318  1.29  0.76 190.8  83.2  5.06  0.00  0.00  0.00  0.62  0.62  0.62   0.1  0.00  0.00  0.00  0.00
 1975 142   202   197   7.8 -15.0 33.69 13.35  0.60  1.02  26.8  1.08 0.127  1.21  2308    16   408  1884   342  1542     0  0.00     0     0  1339     0 166.6 7.574  71.1     0     0   678   315  1.29  0.76 190.3  99.9 15.00  0.00  0.00  0.00  0.62  0.62  0.62   0.2  0.00  0.22  0.00  0.00
 1975 143   203   198   7.2 -15.0 34.01 13.42  0.60  1.05  52.7  1.07 0.128  1.20  2351    16   416  1919   342  1578     0  0.00     0     0  1371     0 171.2 7.722  71.5     0     0   652   313  1.30  0.77 188.6  99.9  8.14  0.00  0.00  0.00  0.61  0.61  0.61   0.2  0.00  0.27  0.00  0.00
 1975 144   204   199   6.1 -15.0 34.28 13.48  0.59  1.06  23.8  1.05 0.128  1.18  2368    16   419  1933   340  1593     0  0.00     0     0  1386     0 175.8 7.848  71.7     0     0   632   310  1.30  0.77 191.3  99.9 15.00  0.00  0.00  0.00  0.61  0.61  0.61   0.3  0.00  0.39  0.00  0.00
 1975 145   205   200   9.7 -15.0 34.72 13.58  0.60  1.10  42.9  1.08 0.133  1.21  2406    16   425  1966   351  1615     0  0.00     0     0  1399     0 175.8 8.051  71.1     0     0   602   308  1.31  0.77 190.8  99.9 10.17  0.00  0.00  0.00  0.59  0.59  0.59   0.2  0.00  0.03  0.00  0.00
 1975 146   206   201  11.8 -15.0 35.24 13.69  0.61  1.10  75.3  1.12 0.139  1.26  2474    16   435  2024   366  1658     0  0.00     0     0  1429     0 175.8 8.301  70.6     0     0   569   305  1.32  0.77 188.7  83.6  5.53  0.00  0.00  0.00  0.59  0.59  0.59   0.1  0.00  0.00  0.00  0.00
 1975 147   207   202  12.6 -15.0 35.80 13.82  0.62  1.06  63.5  1.13 0.144  1.27  2527    16   443  2068   374  1694     0  0.00     0     0  1455     0 180.8 8.575  70.4     0     0   537   302  1.33  0.77 187.1  93.6  6.39  0.00  0.00  0.00  0.61  0.61  0.61   0.2  0.00  0.00  0.00  0.00
 1975 148   208   203  14.4 -15.0 36.44 13.96  0.62  1.05  60.4  1.13 0.147  1.28  2576    16   451  2110   379  1731     0  0.00     0     0  1485     0 185.8 8.894  70.4     0     0   506   298  1.34  0.77 185.8  92.5  6.49  0.00  0.00  0.00  0.61  0.61  0.61   0.2  0.00  0.00  0.00  0.00
 1975 149   209   204   9.0 -15.0 36.84 14.05  0.61  1.05  24.4  1.12 0.147  1.27  2593    16   454  2124   379  1744     0  0.00     0     0  1496     0 190.9 9.097  70.4     0     0   488   296  1.35  0.78 185.8  99.9 15.00  0.00  0.00  0.00  0.61  0.61  0.61   0.3  0.00  0.10  0.00  0.00
 1975 150   210   205   7.7 -15.0 37.18 14.13  0.62  1.09  48.7  1.13 0.150  1.28  2637    16   460  2161   385  1776     0  0.00     0     0  1520     0 191.5 9.272  70.4     0     0   475   294  1.36  0.78 184.5  99.9 10.32  0.00  0.00  0.00  0.60  0.60  0.60   0.2  0.00  0.23  0.00  0.00
 1975 151   211   206   6.1 -15.0 37.45 14.19  0.62  1.12  66.6  1.14 0.152  1.29  2697    16   469  2212   389  1824     0  0.00     0     0  1564     0 191.9 9.413  70.7     0     0   465   293  1.36  0.78 182.7  99.9  8.00  0.00  0.00  0.00  0.59  0.59  0.59   0.1  0.00  0.39  0.00  0.00
 1975 152   212   207   7.6 -15.0 37.79 14.27  0.62  1.11  55.9  1.15 0.155  1.30  2747    16   476  2256   394  1862     0  0.00     0     0  1595     0 192.5 9.590  70.7     0     0   453   291  1.37  0.78 181.6  99.9  8.74  0.00  0.00  0.00  0.59  0.59  0.59   0.2  0.00  0.25  0.00  0.00
 1975 153   213   208   7.7 -15.0 38.13 14.35  0.63  1.12  62.8  1.16 0.158  1.32  2804    16   484  2304   399  1905     0  0.00     0     0  1630     0 193.0 9.774  70.8     0     0   442   290  1.37  0.78 185.7  99.9  7.82  0.00  0.00  0.00  0.59  0.59  0.59   0.1  0.00  0.23  0.00  0.00
 1975 154   214   209   7.5 -15.0 38.46 14.42  0.63  1.11  71.9  1.17 0.161  1.33  2869    16   493  2360   404  1956     0  0.00     0     0  1674     0 193.6 9.954  71.0     0     0   432   288  1.38  0.78 183.5  96.7  7.50  0.00  0.00  0.00  0.59  0.59  0.59   0.2  0.00  0.25  0.00  0.00
 1975 155   215   210   8.4 -15.0 38.84 14.50  0.63  1.12  49.4  1.18 0.165  1.34  2913    16   499  2398   410  1988     0  0.00     0     0  1698     0 194.2 10.16  70.8     0     0   422   287  1.39  0.79 183.7  99.9 10.88  0.00  0.00  0.00  0.58  0.58  0.58   0.2  0.00  0.16  0.00  0.00
 1975 156   216   211  12.5 -15.0 39.39 14.63  0.64  1.13  54.0  1.20 0.170  1.37  2961    16   506  2440   421  2019     0  0.00     0     0  1718     0 195.2 10.47  70.4     0     0   407   285  1.40  0.79 182.5  99.9  9.13  0.00  0.00  0.00  0.58  0.58  0.58   0.1  0.00  0.00  0.00  0.00
 1975 157   217   212  17.8 -15.0 40.21 14.81  0.65  1.11  95.2  1.23 0.178  1.41  3047    16   518  2513   436  2078     0  0.00     0     0  1758     0 196.5 10.92  70.0     0     0   389   283  1.41  0.79 180.5  56.2  4.63  0.00  0.00  0.00  0.59  0.59  0.59   0.1  0.00  0.00  0.00  0.00
 1975 158   218   213  18.0 -15.0 41.11 14.81  0.64  1.09  92.0  1.21 0.184  1.40  3131    16   529  2586   433  2151     0  0.00     0     0  1805     3 196.5 11.39  69.8     0     0   373   280  1.43  0.79 178.5  55.9  4.76  0.00  0.00  0.00  0.60  0.60  0.60   0.2  0.00  0.00  0.00  0.00
 1975 159   219   214  15.7 -15.0 41.89 14.81  0.64  1.13  98.0  1.20 0.191  1.39  3220    16   540  2664   431  2229     0  0.00     0     0  1854     5 196.5 11.81  69.7     0     0   362   278  1.44  0.80 176.5  56.2  4.95  0.00  0.00  0.00  0.58  0.58  0.58   0.3  0.00  0.00  0.00  0.00
 1975 160   220   215  15.9 -15.0 42.69 14.81  0.63  1.17  94.7  1.18 0.197  1.38  3307    16   551  2740   428  2305     0  0.00     0     0  1902     7 196.5 12.23  69.6     0     0   351   275  1.45  0.80 174.8  60.2  5.06  0.00  0.00  0.00  0.57  0.57  0.57   0.3  0.00  0.00  0.00  0.00
 1975 161   221   216  15.3 -15.0 43.45 14.81  0.63  1.22  97.2  1.16 0.204  1.37  3396    16   562  2819   426  2384     0  0.00     0     0  1951     9 196.5 12.66  69.4     0     0   343   273  1.47  0.81 173.2  61.2  5.21  0.00  0.00  0.00  0.55  0.55  0.55   0.3  0.00  0.00  0.00  0.00
 1975 162   222   217  16.9 -15.0 44.29 14.81  0.62  1.27 109.4  1.15 0.212  1.36  3497    16   573  2908   423  2473     0  0.00     0     0  2007    12 196.5 13.13  69.3     0     0   335   271  1.48  0.81 171.5  54.2  4.73  0.00  0.00  0.00  0.53  0.53  0.53   0.3  0.00  0.00  0.00  0.00
 1975 163   223   218  17.9 -15.0 45.19 14.81  0.62  1.32 105.7  1.13 0.219  1.35  3595    16   584  2995   420  2560     0  0.00     0     0  2062    15 196.5 13.64  69.2     0     0   327   269  1.49  0.82 170.1  56.6  5.00  0.00  0.00  0.00  0.51  0.51  0.51   0.4  0.00  0.00  0.00  0.00
 1975 164   224   219  18.0 -15.0 46.09 14.81  0.61  1.39 105.3  1.12 0.227  1.34  3692    16   595  3082   417  2647     0  0.00     0     0  2117    17 196.5 14.17  69.1     0     0   320   268  1.51  0.83 169.3  59.7  4.95  0.00  0.00  0.00  0.49  0.49  0.49   0.4  0.00  0.00  0.00  0.00
 1975 165   225   220  17.5 -15.0 46.96 14.81  0.61  1.45  66.3  1.10 0.231  1.33  3754    16   601  3137   414  2703     0  0.00     0     0  2153    20 196.5 14.69  69.1     0     0   315   266  1.52  0.83 169.6  99.9  8.21  0.00  0.00  0.00  0.46  0.46  0.46   0.5  0.00  0.00  0.00  0.00
 1975 166   226   221  14.9 -15.0 47.71 14.81  0.60  1.53  70.1  1.09 0.236  1.33  3819    16   607  3196   412  2762     0  0.00     0     0  2190    22 196.5 15.14  69.0     0     0   311   265  1.54  0.84 169.6  99.9  8.47  0.00  0.00  0.00  0.43  0.43  0.43   0.4  0.00  0.00  0.00  0.00
 1975 167   227   222  10.4 -15.0 48.23 14.81  0.60  1.60  72.8  1.08 0.241  1.32  3887    16   613  3258   411  2824     0  0.00     0     0  2229    24 196.5 15.45  68.9     0     0   308   263  1.54  0.85 173.3  99.9  8.96  0.00  0.00  0.00  0.41  0.41  0.41   0.6  0.00  0.00  0.00  0.00
 1975 168   228   223  13.8 -15.0 48.92 14.81  0.60  1.66  92.0  1.07 0.248  1.32  3973    16   621  3336   408  2882     0  0.00    20    20  2278    26 196.5 15.87  68.8     0     0   305   263  1.55  0.85 173.6  92.1  7.48  0.00  0.00  0.00  0.38  0.38  0.38   0.4  0.00  0.00  0.00  0.00
 1975 169   229   224  13.4 -15.0 49.58 14.81  0.59  1.73 111.6  1.06 0.257  1.32  4078    16   630  3432   406  2869     0  0.00   130    45  2337    28 196.5 16.29  68.7     0     0   303   262  1.55  0.86 170.4  77.2  6.10  0.00  0.00  0.00  0.36  0.36  0.36   0.4  0.00  0.00  0.00  0.00
 1975 170   230   225  15.5 -15.0 51.43 14.81  0.59  1.79  93.2  1.05 0.264  1.31  4166    16   637  3513   403  2833     0  0.00   247    66  2388    30 196.5 16.78  68.6     0     0   300   260  1.55  0.86 167.7  91.4  6.71  0.00  0.00  0.00  0.34  0.34  0.34   0.7  0.00  0.00  0.00  0.00
 1975 171   231   226  16.8 -15.0 54.79 14.81  0.59  1.86 124.8  1.04 0.273  1.31  4284    16   646  3622   400  2842     0  0.00   348    95  2456    32 196.5 17.31  68.4     0     0   297   259  1.55  0.88 164.5  67.1  4.77  0.00  0.00  0.00  0.31  0.31  0.31   0.4  0.00  0.00  0.00  0.00
 1975 172   232   227  17.5 -15.0 58.30 14.81  0.58  1.91 122.5  1.03 0.282  1.31  4400    16   653  3731   398  2828     0  0.00   470   123  2524    35 196.5 17.88  68.3     0     0   295   258  1.55  0.89 161.4  67.8  4.13  0.00  0.00  0.00  0.29  0.29  0.29   0.4  0.00  0.00  0.00  0.00
 1975 173   233   228  16.0 -15.0 63.73 14.81  0.58  1.95 136.1  1.02 0.292  1.31  4531    16   660  3855   396  2834     0  0.00   588   155  2600    37 196.5 18.40  68.1     0     0   293   257  1.55  0.91 158.3  64.0  3.65  0.00  0.00  0.00  0.28  0.28  0.28   0.5  0.00  0.00  0.00  0.00
 1975 174   234   229  13.8 -15.0 70.09 14.81  0.58  2.00  62.0  1.01 0.296  1.31  4591    16   662  3912   394  2773     0  0.00   707   170  2636    39 196.5 18.85  68.1     0     0   291   256  1.55  0.93 164.3  99.9  7.75  0.00  0.00  0.00  0.26  0.26  0.26   0.9  0.00  0.00  0.00  0.00
 1975 175   235   230  17.3 -15.0 71.42 14.81  0.57  2.06 152.9  1.00 0.309  1.31  4739    16   667  4056   391  2850     3  0.00   772   211  2722    41 196.5 19.43  67.8 18207 .0000   290   256  1.55  0.94 160.3  57.9  3.42  0.00  0.00  0.00  0.24  0.24  0.24   0.5  0.00  0.00  0.00  0.00
 1975 176   236   231  14.4 -15.0 72.53 14.81  0.57  2.10 169.8  0.99 0.323  1.31  4906    16   671  4219   389  2849    37  0.01   901   287  2787    43 196.5 19.90  67.3 18207 .0002   289   255  1.55  0.96 156.4  55.6  3.07  0.00  0.00  0.00  0.22  0.22  0.22   0.2  0.00  0.00  0.00  0.00
 1975 177   237   232  15.7 -15.0 73.73 14.81  0.57  2.12 143.8  0.98 0.322  1.30  5047    16   673  4358   387  2763   110  0.03  1054   360  2856    45 196.5 20.43  67.9 18207 .0006   287   254  1.55  0.97 153.1  62.2  3.26  0.00  0.00  0.00  0.21  0.21  0.21   0.2  0.00  0.00  0.00  0.00
 1975 178   238   233  14.1 -15.0 74.82 14.81  0.56  1.96  95.0  0.97 0.320  1.29  5141    16   674  4451   385  2767   197  0.04  1056   447  2864    47 196.5 20.91  68.1 18207 .0011   286   253  1.55  0.98 150.6  91.7  4.63  0.00  0.00  0.00  0.27  0.27  0.27   0.1  0.00  0.00  0.00  0.00
 1975 179   239   234  11.5 -15.0 75.71 14.81  0.56  1.69  59.0  0.97 0.319  1.29  5199    16   674  4509   383  2755   271  0.06  1051   521  2849    48 196.5 21.30  68.0 18207 .0015   286   252  1.55  0.98 148.8  99.9  5.73  0.00  0.00  0.00  0.37  0.37  0.37   0.2  0.00  0.00  0.00  0.00
 1975 180   240   235  12.2 -15.0 76.65 14.81  0.56  1.45  74.2  0.96 0.318  1.28  5272    16   675  4582   381  2737   370  0.08  1044   620  2824    50 196.5 21.71  67.9 18207 .0020   285   252  1.55  0.98 146.5  87.4  3.30  0.00  0.00  0.00  0.46  0.46  0.46   0.1  0.00  0.00  0.00  0.00
 1975 181   241   236  14.2 -15.0 77.74 14.81  0.56  1.18  68.3  0.95 0.316  1.27  5340    16   675  4649   379  2673   527  0.11  1018   777  2736    51 196.5 22.19  67.2 18207 .0029   284   251  1.55  0.98 143.9  72.2  2.57  0.00  0.00  0.00  0.56  0.56  0.56   0.1  0.00  0.00  0.00  0.00
 1975 182   242   237  14.9 -15.0 78.88 14.81  0.54  0.95  66.9  0.93 0.315  1.24  5406    16   675  4714   369  2579   726  0.15   982   976  2610    58 196.5 22.69  66.4 18207 .0040   284   251  1.55  0.98 140.9  57.5  1.97  0.00  0.00  0.00  0.65  0.65  0.65   0.1  0.00  0.00  0.00  0.00
 1975 183   243   238  15.6 -15.0 80.02 14.81  0.53  0.77  56.2  0.90 0.313  1.21  5461    16   675  4770   359  2440   978  0.20   927  1228  2419    65 196.5 23.21  64.9 18207 .0054   283   250  1.55  0.98 138.1  53.6  1.77  0.00  0.00  0.00  0.71  0.71  0.71   0.0  0.00  0.00  0.00  0.00
 1975 184   244   239  14.9 -15.0 80.30 14.81  0.53  0.63  33.4  0.88 0.312  1.19  5493    16   675  4802   352  2354  1133  0.24   893  1383  2302    70 196.5 23.71  64.0 18207 .0062   282   249  1.55  0.98 136.1  73.5  2.33  0.00  0.00  0.00  0.77  0.77  0.77   0.1  0.00  0.00  0.00  0.00
 1975 185   245   240  16.8 -15.0 80.62 14.81  0.52  0.51  15.7  0.86 0.310  1.17  5508    16   675  4818   345  2317  1201  0.25   880  1451  2254    75 196.5 24.28  63.6 18207 .0066   282   249  1.55  0.98 134.9  99.9  3.82  0.00  0.00  0.00  0.81  0.81  0.81   0.0  0.00  0.00  0.00  0.00
 1975 186   246   241  14.1 -15.0 80.88 14.81  0.51  0.42  15.1  0.84 0.309  1.15  5523    16   675  4832   337  2283  1265  0.26   867  1515  2210    80 196.5 24.76  63.4 18207 .0069   281   248  1.55  0.98 133.5  99.9  3.38  0.00  0.00  0.00  0.85  0.85  0.85   0.1  0.00  0.00  0.00  0.00
 1975 187   247   242  16.3 -15.0 81.19 14.81  0.50  0.34  21.8  0.82 0.307  1.12  5544    16   674  4854   330  2264  1315  0.27   861  1564  2187    85 196.5 25.31  63.3 18207 .0072   281   247  1.55  0.98 131.1  57.2  1.76  0.00  0.00  0.00  0.87  0.87  0.87   0.0  0.00  0.00  0.00  0.00
 1975 188   248   243  17.0 -15.0 81.52 14.81  0.49  0.28  13.7  0.80 0.306  1.10  5557    16   674  4867   323  2242  1359  0.28   853  1609  2160    90 196.5 25.88  63.2 18207 .0075   281   247  1.55  0.98 130.1  72.1  2.17  0.00  0.00  0.00  0.90  0.90  0.90   0.0  0.00  0.00  0.00  0.00
 1975 189   249   244  18.1 -15.0 81.86 14.81  0.48  0.22   9.7  0.78 0.304  1.08  5566    16   674  4877   316  2217  1404  0.29   844  1654  2130    94 196.5 26.49  63.0 18207 .0077   280   246  1.55  0.98 128.0  79.9  2.44  0.00  0.00  0.00  0.92  0.92  0.92   0.0  0.00  0.00  0.00  0.00
 1975 190   250   245  17.5 -15.0 82.19 14.81  0.48  0.18   6.5  0.76 0.302  1.06  5572    16   673  4883   310  2197  1440  0.29   837  1690  2105    99 196.5 27.08  62.9 18207 .0079   280   245  1.55  0.98 126.2  97.6  2.94  0.00  0.00  0.00  0.93  0.93  0.93   0.0  0.00  0.00  0.00  0.00
 1975 191   251   246  17.7 -15.0 82.52 14.81  0.47  0.15   5.5  0.74 0.301  1.04  5577    16   672  4889   303  2175  1477  0.30   830  1727  2078   103 196.5 27.68  62.8 18207 .0081   279   245  1.55  0.98 124.6  93.0  2.79  0.00  0.00  0.00  0.94  0.94  0.94   0.0  0.00  0.00  0.00  0.00
 1975 192   252   247  18.2 -15.0 82.86 14.81  0.46  0.12   6.0  0.72 0.299  1.02  5582    16   672  4894   296  2159  1507  0.31   824  1757  2058   108 196.5 28.29  62.8 18207 .0083   279   244  1.55  0.98 122.6  68.0  1.97  0.00  0.00  0.00  0.95  0.95  0.95   0.0  0.00  0.00  0.00  0.00
 1975 193   253   248  15.3 -15.0 83.15 14.81  0.45  0.10   2.3  0.71 0.298  1.00  5584    16   671  4897   290  2137  1540  0.31   817  1790  2032   112 196.5 28.80  62.6 18207 .0085   279   243  1.55  0.98 124.0  99.9  3.96  0.00  0.00  0.00  0.96  0.96  0.96   0.0  0.00  0.00  0.00  0.00
 1975 194   254   249  19.0 -15.0 83.51 14.81  0.44  0.08   3.3  0.69 0.296  0.99  5587    16   671  4900   284  2120  1569  0.32   811  1819  2010   117 196.5 29.44  62.5 18207 .0086   279   243  1.55  0.98 121.8  80.3  2.52  0.00  0.00  0.00  0.97  0.97  0.97   0.0  0.00  0.00  0.00  0.00
 1975 195   255   250  20.2 -15.0 83.89 14.81  0.43  0.07   2.9  0.67 0.295  0.97  5589    16   670  4903   277  2104  1595  0.33   806  1844  1992   121 196.5 30.12  62.5 18207 .0088   278   242  1.55  0.98 120.0  72.2  1.79  0.00  0.00  0.00  0.98  0.98  0.98   0.0  0.00  0.02  0.00  0.00
 1975 196   256   251  17.6 -15.0 84.23 14.81  0.43  0.06   2.1  0.65 0.293  0.95  5590    16   670  4905   271  2088  1620  0.33   800  1870  1972   125 196.5 30.71  62.4 18207 .0089   278   241  1.55  0.98 119.3  88.1  2.02  0.00  0.00  0.00  0.98  0.98  0.98   0.0  0.00  0.00  0.00  0.00
 1975 197   257   252  17.8 -15.0 84.56 14.81  0.42  0.05   1.7  0.64 0.292  0.93  5591    16   669  4907   265  2071  1647  0.34   795  1897  1951   129 196.5 31.31  62.3 18207 .0090   278   241  1.55  0.98 117.2  84.5  2.11  0.00  0.00  0.00  0.98  0.98  0.98   0.0  0.00  0.00  0.00  0.00
 1975 198   258   253  18.5 -15.0 84.91 14.81  0.41  0.04   1.0  0.62 0.291  0.91  5592    16   668  4908   259  2054  1672  0.34   789  1922  1931   133 196.5 31.92  62.2 18207 .0092   278   240  1.55  0.98 122.7  99.9  2.40  0.00  0.00  0.00  0.99  0.99  0.99   0.0  0.00  0.00  0.00  0.00
 1975 199   259   254  16.8 -15.0 85.23 14.81  0.40  0.03   1.1  0.61 0.289  0.90  5592    16   668  4909   254  2041  1693  0.34   785  1943  1915   137 196.5 32.48  62.2 18207 .0093   278   239  1.55  0.98 120.4  95.1  3.25  0.00  0.00  0.00  0.99  0.99  0.99   0.0  0.00  0.00  0.00  0.00
 1975 200   260   255  16.2 -15.0 85.54 14.81  0.40  0.03   0.5  0.59 0.288  0.88  5592    16   667  4909   248  2025  1716  0.35   780  1965  1897   141 196.5 33.02  62.1 18207 .0094   278   239  1.55  0.98 118.7  99.9  5.50  0.00  0.00  0.00  0.99  0.99  0.99   0.0  0.00  0.00  0.00  0.00
 1975 201   261   256  17.9 -15.0 85.87 14.81  0.39  0.02   0.4  0.58 0.287  0.86  5592    16   667  4909   242  2010  1739  0.35   774  1989  1878   144 196.5 33.62  62.0 18207 .0096   278   238  1.55  0.98 117.0  99.9  5.21  0.00  0.00  0.00  0.99  0.99  0.99   0.0  0.00  0.00  0.00  0.00
 1975 202   262   257  15.8 -15.0 86.17 14.81  0.38  0.02   0.6  0.56 0.286  0.85  5592    16   666  4910   237  1995  1761  0.36   769  2011  1860   148 196.5 34.15  62.0 18207 .0097   278   238  1.55  0.98 115.2  92.6  3.20  0.00  0.00  0.00  0.99  0.99  0.99   0.0  0.00  0.00  0.00  0.00
 1975 203   263   258  17.0 -15.0 86.49 14.81  0.37  0.01   0.3  0.55 0.284  0.83  5592    16   666  4910   232  1983  1779  0.36   765  2029  1845   151 196.5 34.71  61.9 18207 .0098   278   237  1.55  0.98 113.9  99.9  4.86  0.00  0.00  0.00  0.99  0.99  0.99   0.0  0.00  0.00  0.00  0.00
 1975 204   264   259  17.2 -15.0 86.82 14.81  0.37  0.01   0.3  0.54 0.283  0.82  5592    16   665  4911   226  1968  1801  0.37   760  2051  1827   155 196.5 35.28  61.8 18207 .0099   277   236  1.55  0.98 112.9  99.9  2.81  0.00  0.00  0.00  1.00  1.00  1.00   0.0  0.00  0.00  0.00  0.00
 1975 205   265   260  13.4 -15.0 87.07 14.81  0.36  0.01   0.3  0.52 0.282  0.80  5591    16   665  4911   221  1954  1822  0.37   756  2071  1810   158 196.5 35.73  61.8 18207 .0100   277   236  1.55  0.98 112.9  99.9  2.65  0.00  0.00  0.00  1.00  1.00  1.00   0.0  0.00  0.00  0.00  0.00
 1975 206   266   261  13.9 -15.0 87.33 14.81  0.34  0.01   0.2  0.49 0.281  0.77  5591    16   664  4911   208  1941  1842  0.38   753  2092  1798   166 196.5 36.19  61.9 18207 .0101   277   235  1.55  0.98 111.2  99.9  3.96  0.00  0.00  0.00  1.00  1.00  1.00   0.0  0.00  0.00  0.00  0.00
 1975 207   267   262  18.0 -15.0 87.67 14.81  0.32  0.01   0.2  0.46 0.280  0.74  5591    16   664  4911   195  1931  1859  0.38   752  2109  1789   174 196.5 36.79  62.2 18207 .0102   277   235  1.55  0.98 109.4  87.9  1.77  0.00  0.00  0.00  1.00  1.00  1.00   0.0  0.00  0.00  0.00  0.00
 1975 208   268   263  19.2 -15.0 88.04 14.81  0.30  0.01   0.1  0.42 0.279  0.70  5590    16   663  4911   179  1920  1879  0.38   750  2128  1780   184 196.5 37.43  62.5 18207 .0103   277   234  1.55  0.98 107.9  99.9  2.02  0.00  0.00  0.00  1.00  1.00  1.00   0.0  0.00  0.00  0.00  0.00
 1975 209   269   264  20.5 -15.0 88.42 14.81  0.27  0.00   0.1  0.38 0.276  0.65  5590    16   662  4912   162  1901  1898  0.39   752  2148  1770   199 196.5 38.11  62.9 18207 .0104   277   234  1.55  0.98 106.2  88.6  1.50  0.00  0.00  0.00  1.00  1.00  1.00   0.0  0.00  0.04  0.00  0.00
 1975 210   270   265  20.9 -15.0 88.82 14.81  0.25  0.00   0.1  0.34 0.274  0.61  5589    16   662  4912   145  1883  1916  0.39   754  2166  1763   214 196.5 38.80  63.4 18207 .0105   277   233  1.55  0.98 104.9  92.7  1.52  0.00  0.00  0.00  1.00  1.00  1.00   0.0  0.00  0.06  0.00  0.00
 1975 211   271   266  21.2 -15.0 89.22 14.81  0.22  0.00   0.1  0.30 0.272  0.57  5588    16   661  4912   127  1865  1935  0.39   756  2185  1755   229 196.5 39.50  63.8 18207 .0106   277   232  1.55  0.98 103.8  99.9  1.65  0.00  0.00  0.00  1.00  1.00  1.00   0.0  0.00  0.08  0.00  0.00
 1975 212   272   267  20.2 -15.0 89.60 14.81  0.19  0.00   0.0  0.26 0.269  0.52  5588    16   660  4912   110  1848  1952  0.40   758  2202  1747   244 196.5 40.17  64.3 18207 .0107   277   232  1.55  0.98 103.3  99.9  3.28  0.00  0.00  0.00  1.00  1.00  1.00   0.0  0.00  0.01  0.00  0.00
 1975 213   273   268  20.2 -15.0 89.98 14.81  0.17  0.00   0.0  0.22 0.267  0.48  5587    16   660  4912    94  1831  1970  0.40   760  2220  1739   258 196.5 40.83  64.8 18207 .0108   277   231  1.55  0.98 102.5  99.9  2.08  0.00  0.00  0.00  1.00  1.00  1.00   0.0  0.00  0.01  0.00  0.00
 1975 214   274   269  19.3 -15.0 90.91 14.81  0.14  0.00   0.0  0.18 0.265  0.44  5587    16   659  4912    78  1814  1987  0.40   762  2237  1731   271 196.5 41.47  65.2 18207 .0109   277   230  1.55  0.98 101.6  99.9  2.09  0.00  0.00  0.00  1.00  1.00  1.00   0.0  0.00  0.00  0.00  0.00

*DSSAT Cropping System Model Ver. 4.8.2.010 -develop  JUL 08, 2024 16:11:18

*RUN   2        : 30 KG N/HA                CSCER048 RORO7401    2
 MODEL          : CSCER048 - Wheat
[...]
 1975 147   207   202  12.6 -15.0 35.80 13.82  0.93  2.70 243.6  3.13 0.405  3.54  5622    16   769  4837  1042  3795     0  0.00     0     0  3109     0 106.9 10.83  64.3     0     0   619   300  1.33  0.83 185.4  59.0  6.97  0.00  0.00  0.00  0.00  0.00  0.00   2.0  0.00  0.00  0.00  0.00
 1975 148   208   203  14.4 -15.0 36.44 13.96  0.94  2.70 235.0  3.24 0.427  3.66  5841    16   792  5033  1088  3945     0  0.00     0     0  3216     0 106.9 11.38  63.9     0     0   585   298  1.34  0.83 183.6  58.0  7.15  0.00  0.00  0.00  0.00  0.00  0.00   2.0  0.00  0.00  0.00  0.00
 1975 149   209   204   9.0 -15.0 36.84 14.05  0.94  2.70  94.9  3.31 0.439  3.75  5929    16   801  5113  1119  3993     0  0.00     0     0  3244     0 106.9 11.74  63.4     0     0   566   296  1.35  0.84 183.7  99.9 15.00  0.00  0.00  0.00  0.00  0.00  0.00   2.0  0.00  0.10  0.00  0.00
 1975 150   210   205   7.7 -15.0 37.18 14.13  0.94  2.70 184.1  3.36 0.452  3.81  6100    16   819  5266  1143  4123     0  0.00     0     0  3343     0 107.8 12.05  63.5     0     0   551   294  1.36  0.84 182.3  87.6 10.09  0.00  0.00  0.00  0.00  0.00  0.00   2.0  0.00  0.23  0.00  0.00
 1975 151   211   206   6.1 -15.0 37.45 14.19  0.94  2.70 245.8  3.38 0.457  3.84  6329    16   842  5472  1154  4317     0  0.00     0     0  3525     0 108.6 12.30  64.4     0     0   541   293  1.36  0.84 180.0  66.2  7.04  0.00  0.00  0.00  0.00  0.00  0.00   2.0  0.00  0.39  0.00  0.00
 1975 152   212   207   7.6 -15.0 37.79 14.27  0.94  2.70 206.5  3.41 0.466  3.87  6521    16   861  5644  1169  4475     0  0.00     0     0  3663     0 109.5 12.62  64.9     0     0   528   291  1.37  0.84 178.5  75.5  8.04  0.00  0.00  0.00  0.00  0.00  0.00   2.0  0.00  0.25  0.00  0.00
 1975 153   213   208   7.7 -15.0 38.13 14.35  0.95  2.70 229.8  3.44 0.475  3.91  6735    16   883  5837  1185  4651     0  0.00     0     0  3818     0 110.4 12.95  65.4     0     0   517   290  1.37  0.84 182.4  69.5  7.40  0.00  0.00  0.00  0.00  0.00  0.00   2.0  0.00  0.23  0.00  0.00
 1975 154   214   209   7.5 -15.0 38.46 14.42  0.95  2.70 263.3  3.47 0.483  3.95  6981    16   907  6058  1200  4858     0  0.00     0     0  4005     0 111.3 13.28  66.1     0     0   506   289  1.38  0.84 180.0  59.8  8.62  0.00  0.00  0.00  0.00  0.00  0.00   2.0  0.00  0.25  0.00  0.00
 1975 155   215   210   8.4 -15.0 38.84 14.50  0.95  2.70 179.2  3.50 0.493  4.00  7147    16   924  6208  1218  4990     0  0.00     0     0  4112     0 112.3 13.66  66.2     0     0   495   288  1.39  0.84 180.3  85.4 12.63  0.00  0.00  0.00  0.00  0.00  0.00   2.0  0.00  0.16  0.00  0.00
 1975 156   216   211  12.5 -15.0 39.39 14.63  0.95  2.70 193.6  3.57 0.510  4.09  7327    16   941  6370  1250  5121     0  0.00     0     0  4203     0 113.9 14.24  66.0     0     0   480   286  1.40  0.85 179.1  70.6 10.64  0.00  0.00  0.00  0.00  0.00  0.00   2.0  0.00  0.00  0.00  0.00
 1975 157   217   212  17.8 -15.0 40.21 14.81  0.96  2.70 343.4  3.67 0.537  4.21  7646    16   972  6659  1293  5366     0  0.00     0     0  4381     0 116.1 15.07  65.8     0     0   461   284  1.41  0.85 175.8  34.9  4.83  0.00  0.00  0.00  0.00  0.00  0.00   2.0  0.00  0.00  0.00  0.00
 1975 158   218   213  18.0 -15.0 41.11 14.81  0.95  2.70 334.5  3.61 0.562  4.18  7960    16  1001  6944  1285  5651     0  0.00     0     0  4560     8 116.1 15.95  65.7     0     0   444   281  1.43  0.85 172.6  34.8  4.61  0.00  0.00  0.00  0.00  0.00  0.00   2.0  0.00  0.00  0.00  0.00
 1975 159   219   214  15.7 -15.0 41.89 14.81  0.95  2.70 347.9  3.56 0.588  4.15  8287    16  1030  7241  1278  5949     0  0.00     0     0  4745    15 116.1 16.74  65.7     0     0   431   279  1.44  0.86 169.2  34.4  3.86  0.00  0.00  0.00  0.00  0.00  0.00   2.0  0.00  0.00  0.00  0.00
 1975 160   220   215  15.9 -15.0 42.69 14.81  0.95  2.70 325.3  3.52 0.613  4.13  8593    16  1057  7521  1271  6229     0  0.00     0     0  4920    21 116.1 17.55  65.6     0     0   420   277  1.45  0.86 166.1  36.2  3.53  0.00  0.00  0.00  0.00  0.00  0.00   2.0  0.00  0.00  0.00  0.00
 1975 161   221   216  15.3 -15.0 43.45 14.81  0.95  2.70 323.3  3.47 0.638  4.11  8898    16  1082  7800  1264  6508     0  0.00     0     0  5094    28 116.1 18.36  65.5     0     0   411   275  1.47  0.86 163.1  36.3  2.66  0.00  0.00  0.00  0.00  0.00  0.00   2.0  0.00  0.00  0.00  0.00
 1975 162   222   217  16.9 -15.0 44.29 14.81  0.95  2.70 350.8  3.43 0.665  4.09  9229    16  1109  8104  1255  6813     0  0.00     0     0  5284    35 116.1 19.27  65.5     0     0   402   273  1.48  0.87 159.8  31.6  1.81  0.00  0.00  0.00  0.00  0.00  0.00   2.0  0.00  0.00  0.00  0.00
 1975 163   223   218  17.9 -15.0 45.19 14.81  0.94  2.70 328.3  3.38 0.690  4.07  9540    16  1134  8390  1247  7100     0  0.00     0     0  5464    43 116.1 20.27  65.5     0     0   393   271  1.49  0.87 157.0  32.5  1.63  0.00  0.00  0.00  0.00  0.00  0.00   2.0  0.00  0.00  0.00  0.00
 1975 164   224   219  18.0 -15.0 46.09 14.81  0.94  2.70 313.5  3.33 0.714  4.05  9837    16  1156  8665  1238  7376     0  0.00     0     0  5636    51 116.1 21.29  65.4     0     0   385   269  1.51  0.88 154.5  33.6  1.59  0.00  0.00  0.00  0.00  0.00  0.00   2.0  0.00  0.00  0.00  0.00
 1975 165   225   220  17.5 -15.0 46.96 14.81  0.94  2.70 189.5  3.29 0.727  4.02 10016    16  1169  8832  1229  7543     0  0.00     0     0  5744    59 116.1 22.30  65.5     0     0   379   268  1.52  0.88 153.8  56.4  2.26  0.00  0.00  0.00  0.00  0.00  0.00   2.0  0.00  0.00  0.00  0.00
 1975 166   226   221  14.9 -15.0 47.71 14.81  0.94  2.70 191.6  3.25 0.741  3.99 10198    16  1181  9001  1223  7713     0  0.00     0     0  5853    66 116.1 23.17  65.5     0     0   374   266  1.54  0.88 153.0  59.3  2.27  0.00  0.00  0.00  0.00  0.00  0.00   2.0  0.00  0.00  0.00  0.00
 1975 167   227   222  10.4 -15.0 48.23 14.81  0.94  2.70 191.2  3.23 0.756  3.98 10380    16  1193  9171  1218  7883     0  0.00     0     0  5959    70 116.1 23.78  65.5     0     0   371   265  1.54  0.89 156.0  66.5  2.41  0.00  0.00  0.00  0.00  0.00  0.00   2.0  0.00  0.00  0.00  0.00
 1975 168   228   223  13.8 -15.0 48.92 14.81  0.93  2.70 232.6  3.20 0.773  3.97 10602    16  1208  9379  1211  8038     0  0.00    54    54  6090    76 116.1 24.60  65.5     0     0   367   264  1.55  0.89 155.7  50.5  4.29  0.00  0.00  0.00  0.00  0.00  0.00   2.0  0.00  0.00  0.00  0.00
 1975 169   229   224  13.4 -15.0 49.58 14.81  0.93  2.70 272.5  3.17 0.795  3.96 10862    16  1224  9622  1204  8034     0  0.00   302   117  6242    82 116.1 25.41  65.4     0     0   363   263  1.55  0.89 151.6  41.9  3.58  0.00  0.00  0.00  0.00  0.00  0.00   2.0  0.00  0.00  0.00  0.00
 1975 170   230   225  15.5 -15.0 51.43 14.81  0.93  2.70 220.4  3.13 0.812  3.94 11073    16  1236  9820  1195  7974     0  0.00   561   169  6368    89 116.1 26.36  65.4     0     0   359   262  1.55  0.90 148.2  49.1  1.85  0.00  0.00  0.00  0.00  0.00  0.00   2.0  0.00  0.00  0.00  0.00
 1975 171   231   226  16.8 -15.0 54.79 14.81  0.93  2.70 285.3  3.10 0.832  3.93 11346    16  1251 10079  1188  8011     0  0.00   784   236  6529    96 116.1 27.40  65.4     0     0   355   261  1.55  0.91 143.6  35.3  1.04  0.00  0.00  0.20  0.00  0.00  0.00   2.0  0.00  0.00  0.00  0.00
 1975 172   232   227  17.5 -15.0 58.30 14.81  0.93  2.43 247.4  3.06 0.848  3.91 11584    16  1263 10304  1181  7978     0  0.00  1043   295  6671   103 116.1 28.49  65.4     0     0   352   259  1.55  0.91 140.0  35.3  0.90  0.20  0.10  0.31  0.00  0.00  0.00   2.0  0.00  0.00  0.00  0.00
 1975 173   233   228  16.0 -15.0 63.73 14.81  0.92  2.09 230.8  3.03 0.864  3.90 11806    16  1274 10515  1174  7968     0  0.00  1265   349  6804   109 116.1 29.50  65.4     0     0   349   258  1.55  0.91 136.7  33.0  0.77  0.46  0.23  0.41  0.00  0.00  0.00   2.0  0.00  0.00  0.00  0.00
 1975 174   234   229  13.8 -15.0 70.09 14.81  0.92  2.70 133.6  3.01 0.872  3.88 11936    16  1277 10643  1169  7904     0  0.00  1456   383  6886   114 116.1 30.38  65.4     0     0   346   257  1.55  0.95 142.1  80.6  1.70  0.00  0.00  0.00  0.00  0.00  0.00   2.0  0.00  0.00  0.00  0.00
 1975 175   235   230  17.3 -15.0 71.42 14.81  0.92  2.70 321.5  2.98 0.897  3.87 12251    16  1283 10953  1161  8058     8  0.00  1605   471  7070   121 116.1 31.48  65.3 49484 .0000   343   256  1.55  0.96 136.8  29.6  2.47  0.00  0.00  0.00  0.00  0.00  0.00   2.0  0.00  0.00  0.00  0.00
 1975 176   236   231  14.4 -15.0 72.53 14.81  0.92  2.70 350.6  2.95 0.927  3.88 12598    16  1286 11296  1155  8035   101  0.01  1878   653  7189   126 116.1 32.40  64.9 49484 .0002   341   255  1.55  0.98 132.3  28.0  2.41  0.00  0.00  0.00  0.00  0.00  0.00   2.0  0.00  0.00  0.00  0.00
 1975 177   237   232  15.7 -15.0 73.73 14.81  0.92  1.83 200.1  2.92 0.922  3.84 12794    16  1290 11488  1148  7776   298  0.03  2134   851  7190   132 116.1 33.41  65.0 49484 .0006   339   254  1.55  0.96 129.5  31.2  0.68  0.64  0.32  0.48  0.00  0.00  0.00   2.0  0.00  0.00  0.00  0.00
 1975 178   238   233  14.1 -15.0 74.82 14.81  0.91  2.56 200.3  2.90 0.917  3.81 12992    16  1292 11685  1142  7744   535  0.05  2125  1088  7155   138 116.1 34.33  65.0 49484 .0011   337   254  1.55  0.98 126.8  45.5  0.95  0.11  0.05  0.27  0.00  0.00  0.00   2.0  0.00  0.00  0.00  0.00
 1975 179   239   234  11.5 -15.0 75.71 14.81  0.91  2.70 153.2  2.88 0.914  3.79 13143    16  1293 11835  1137  7704   738  0.06  2114  1290  7107   142 116.1 35.07  64.9 49484 .0015   336   253  1.55  0.98 124.9  66.1  1.35  0.00  0.00  0.00  0.00  0.00  0.00   0.6  0.00  0.00  0.00  0.00
 1975 180   240   235  12.2 -15.0 76.65 14.81  0.91  2.37 196.6  2.85 0.910  3.76 13337    16  1294 12027  1131  7645  1007  0.08  2097  1559  7035   147 116.1 35.86  64.7 49484 .0020   335   252  1.55  0.98 122.3  42.6  0.88  0.25  0.12  0.33  0.00  0.00  0.00   0.1  0.00  0.00  0.00  0.00
 1975 181   241   236  14.2 -15.0 77.74 14.81  0.91  1.75 166.2  2.83 0.905  3.73 13501    16  1295 12190  1125  7443  1432  0.12  2039  1984  6779   153 116.1 36.78  63.9 49484 .0029   333   252  1.55  0.98 119.8  35.0  0.71  0.59  0.29  0.46  0.08  0.08  0.08   0.1  0.00  0.00  0.00  0.00
 1975 182   242   237  14.9 -15.0 78.88 14.81  0.90  0.97 111.4  2.75 0.901  3.65 13611    16  1296 12299  1095  7114  1972  0.16  1946  2525  6367   172 116.1 37.74  62.7 49484 .0040   332   251  1.55  0.98 117.7  27.8  0.48  1.00  0.52  0.63  0.26  0.26  0.26   0.0  0.00  0.00  0.00  0.00
 1975 183   243   238  15.6 -15.0 80.02 14.81  0.90  0.65  78.7  2.66 0.896  3.56 13688    16  1296 12377  1066  6649  2657  0.21  1812  3210  5779   192 116.1 38.75  60.7 49484 .0054   330   250  1.55  0.98 115.9  25.8  0.40  1.00  0.60  0.69  0.40  0.40  0.40   0.0  0.00  0.00  0.00  0.00
 1975 184   244   239  14.9 -15.0 80.30 14.81  0.89  0.66  59.0  2.60 0.892  3.49 13746    16  1296 12434  1044  6143  3374  0.27  1666  3927  5135   207 116.1 39.71  58.0 49484 .0068   329   249  1.55  0.98 114.2  34.9  0.50  1.00  0.50  0.62  0.51  0.51  0.51   0.0  0.00  0.00  0.00  0.00
 1975 185   245   240  16.8 -15.0 80.62 14.81  0.88  0.83  43.4  2.54 0.887  3.43 13788    16  1295 12477  1022  5504  4248  0.34  1480  4801  4319   222 116.1 40.80  53.9 49484 .0086   327   248  1.55  0.98 112.7  57.6  0.77  0.45  0.23  0.41  0.60  0.60  0.60   0.0  0.00  0.00  0.00  0.00
 1975 186   246   241  14.1 -15.0 80.88 14.81  0.88  0.55  33.8  2.48 0.883  3.36 13820    16  1294 12510  1001  5033  4895  0.39  1344  5447  3720   237 116.1 41.71  50.4 49484 .0099   325   248  1.55  0.98 111.3  50.9  0.62  0.76  0.38  0.52  0.67  0.67  0.67   0.0  0.00  0.00  0.00  0.00
 1975 187   247   242  16.3 -15.0 81.19 14.81  0.87  0.22  24.4  2.37 0.879  3.25 13843    16  1294 12534   960  4821  5202  0.42  1287  5755  3463   264 116.1 42.77  49.0 49484 .0105   324   247  1.55  0.98 110.0  26.4  0.31  1.00  0.69  0.76  0.74  0.74  0.74   0.0  0.00  0.00  0.00  0.00
 1975 188   248   243  17.0 -15.0 81.52 14.81  0.85  0.22  18.7  2.26 0.874  3.14 13861    16  1293 12552   920  4697  5389  0.43  1256  5941  3321   290 116.1 43.87  48.3 49484 .0109   322   246  1.55  0.98 108.7  33.2  0.37  1.00  0.63  0.71  0.78  0.78  0.78   0.0  0.00  0.00  0.00  0.00
 1975 189   249   244  18.1 -15.0 81.86 14.81  0.84  0.20  15.2  2.16 0.869  3.03 13875    16  1292 12567   882  4599  5539  0.44  1233  6091  3211   315 116.1 45.04  47.8 49484 .0112   320   245  1.55  0.98 107.5  37.1  0.43  1.00  0.57  0.67  0.82  0.82  0.82   0.0  0.00  0.00  0.00  0.00
 1975 190   250   245  17.5 -15.0 82.19 14.81  0.83  0.19  11.5  2.06 0.864  2.93 13885    16  1291 12578   845  4520  5660  0.45  1214  6213  3124   339 116.1 46.17  47.5 49484 .0114   319   244  1.55  0.98 106.3  45.4  0.48  1.00  0.52  0.63  0.86  0.86  0.86   0.0  0.00  0.00  0.00  0.00
 1975 191   251   246  17.7 -15.0 82.52 14.81  0.81  0.14   9.1  1.97 0.860  2.83 13893    16  1290 12587   810  4456  5760  0.46  1201  6312  3057   361 116.1 47.31  47.3 49484 .0116   317   243  1.55  0.98 105.2  43.4  0.45  1.00  0.55  0.66  0.88  0.88  0.88   0.0  0.00  0.00  0.00  0.00
 1975 192   252   247  18.2 -15.0 82.86 14.81  0.80  0.08   7.1  1.88 0.855  2.73 13899    16  1289 12594   776  4403  5842  0.46  1190  6394  3004   384 116.1 48.48  47.2 49484 .0118   315   242  1.55  0.98 104.1  31.9  0.32  1.00  0.68  0.75  0.90  0.90  0.90   0.0  0.00  0.00  0.00  0.00
 1975 193   253   248  15.3 -15.0 83.15 14.81  0.79  0.15   6.0  1.83 0.851  2.68 13904    16  1288 12600   759  4357  5911  0.47  1179  6463  2952   395 116.1 49.47  46.9 49484 .0119   314   241  1.55  0.98 104.8  72.7  0.71  0.59  0.29  0.46  0.92  0.92  0.92   0.0  0.00  0.00  0.00  0.00
 1975 194   254   249  19.0 -15.0 83.51 14.81  0.78  0.17  12.1  1.78 0.847  2.63 13915    16  1287 12612   742  4272  6036  0.48  1156  6588  2851   407 116.1 50.69  46.2 49484 .0122   312   241  1.55  0.98 102.0  37.2  0.99  0.01  0.01  0.23  0.94  0.94  0.94   0.0  0.00  0.00  0.00  0.00
 1975 195   255   250  20.2 -15.0 83.89 14.81  0.76  0.05   3.5  1.70 0.842  2.54 13917    16  1285 12616   710  4243  6084  0.48  1152  6636  2827   427 116.1 52.00  46.3 49484 .0123   310   240  1.55  0.98 101.1  33.5  0.32  1.00  0.68  0.75  0.95  0.95  0.95   0.0  0.00  0.02  0.00  0.00
 1975 196   256   251  17.6 -15.0 84.23 14.81  0.75  0.05   3.2  1.62 0.838  2.46 13919    16  1284 12619   680  4216  6127  0.49  1149  6680  2806   447 116.1 53.13  46.4 49484 .0124   309   239  1.55  0.98 100.9  41.1  0.42  1.00  0.58  0.68  0.96  0.96  0.96   0.0  0.00  0.00  0.00  0.00
 1975 197   257   252  17.8 -15.0 84.56 14.81  0.73  0.05   3.3  1.55 0.834  2.38 13921    16  1283 12622   650  4180  6184  0.49  1142  6736  2771   465 116.1 54.27  46.4 49484 .0125   307   238  1.55  0.98  99.2  39.7  0.52  0.96  0.48  0.60  0.96  0.96  0.96   0.0  0.00  0.00  0.00  0.00
 1975 198   258   253  18.5 -15.0 84.91 14.81  0.71  0.04   2.0  1.47 0.829  2.30 13922    16  1282 12624   622  4160  6218  0.49  1141  6770  2757   483 116.1 55.45  46.5 49484 .0126   306   237  1.55  0.98 104.9  57.3  0.54  0.92  0.46  0.59  0.97  0.97  0.97   0.0  0.00  0.00  0.00  0.00
 1975 199   259   254  16.8 -15.0 85.23 14.81  0.70  0.06   3.9  1.43 0.826  2.26 13925    16  1281 12628   608  3491  7092  0.56   945  7644  1897   493 116.1 56.53  37.6 49484 .0143   304   236  1.55  0.98 101.7  45.5  4.18  0.00  0.00  0.00  0.98  0.98  0.98   0.6  0.00  0.00  0.00  0.00
 1975 200   260   255  16.2 -15.0 85.54 14.81  0.69  0.05   1.9  1.40 0.822  2.22 13925    16  1280 12630   593  3046  7674  0.61   815  8226  1326   502 116.1 57.57  29.8 49484 .0155   303   235  1.55  0.98  99.8  76.3  7.13  0.00  0.00  0.00  0.98  0.98  0.98   0.2  0.00  0.00  0.00  0.00
 1975 201   261   256  17.9 -15.0 85.87 14.81  0.68  0.04   1.6  1.36 0.818  2.18 13926    16  1279 12631   579  2955  7796  0.62   790  8348  1215   512 116.1 58.71  28.1 49484 .0158   302   235  1.55  0.98  97.9  71.2  3.28  0.00  0.00  0.00  0.98  0.98  0.98   0.1  0.00  0.00  0.00  0.00
 1975 202   262   257  15.8 -15.0 86.17 14.81  0.67  0.02   1.0  1.29 0.815  2.11 13926    16  1278 12632   554  2938  7825  0.62   789  8377  1203   527 116.1 59.72  28.1 49484 .0158   300   234  1.55  0.98  96.7  43.3  0.47  1.00  0.53  0.64  0.99  0.99  0.99   0.0  0.00  0.00  0.00  0.00
 1975 203   263   258  17.0 -15.0 86.49 14.81  0.66  0.02   0.8  1.26 0.811  2.07 13926    16  1277 12633   540  2922  7848  0.62   786  8400  1189   536 116.1 60.80  28.0 49484 .0159   299   233  1.55  0.98  95.6  66.3  0.66  0.67  0.34  0.49  0.99  0.99  0.99   0.0  0.00  0.00  0.00  0.00
 1975 204   264   259  17.2 -15.0 86.82 14.81  0.64  0.01   0.6  1.20 0.808  2.01 13925    16  1276 12634   516  2911  7869  0.62   786  8422  1183   551 116.1 61.90  28.1 49484 .0159   298   232  1.55  0.98  94.8  56.6  0.54  0.91  0.46  0.58  0.99  0.99  0.99   0.0  0.00  0.00  0.00  0.00
 1975 205   265   260  13.4 -15.0 87.07 14.81  0.62  0.01   0.5  1.14 0.805  1.95 13925    16  1275 12634   494  2899  7890  0.62   786  8442  1177   565 116.1 62.76  28.2 49484 .0159   297   232  1.55  0.98  95.1  59.2  0.57  0.85  0.43  0.56  0.99  0.99  0.99   0.0  0.00  0.00  0.00  0.00
 1975 206   266   261  13.9 -15.0 87.33 14.81  0.60  0.02   0.8  1.07 0.802  1.87 13925    16  1274 12635   464  2863  7945  0.63   780  8498  1140   583 116.1 63.64  27.8 49484 .0161   296   231  1.55  0.98  93.0  55.2  0.95  0.10  0.05  0.27  0.99  0.99  0.99   0.0  0.00  0.00  0.00  0.00
 1975 207   267   262  18.0 -15.0 87.67 14.81  0.56  0.01   0.3  0.98 0.799  1.78 13924    16  1273 12635   425  2857  7963  0.63   784  8516  1146   607 116.1 64.79  28.2 49484 .0161   295   230  1.55  0.98  92.1  41.4  0.40  1.00  0.60  0.69  1.00  1.00  1.00   0.0  0.00  0.00  0.00  0.00
 1975 208   268   263  19.2 -15.0 88.04 14.81  0.52  0.01   0.2  0.87 0.795  1.67 13923    16  1272 12635   381  2852  7981  0.63   789  8533  1156   633 116.1 66.01  28.7 49484 .0161   294   230  1.55  0.98  91.3  54.1  0.47  1.00  0.53  0.64  1.00  1.00  1.00   0.0  0.00  0.00  0.00  0.00
 1975 209   269   264  20.5 -15.0 88.42 14.81  0.48  0.00   0.2  0.77 0.788  1.56 13922    16  1270 12636   336  2833  7998  0.63   795  8550  1166   673 116.1 67.32  29.4 49484 .0162   293   229  1.55  0.98  90.5  42.4  0.37  1.00  0.63  0.72  1.00  1.00  1.00   0.0  0.00  0.04  0.00  0.00
 1975 210   270   265  20.9 -15.0 88.82 14.81  0.43  0.00   0.2  0.66 0.780  1.44 13920    16  1269 12636   291  2815  8014  0.63   802  8566  1176   713 116.1 68.64  30.1 49484 .0162   291   228  1.55  0.98  89.6  44.7  0.39  1.00  0.61  0.70  1.00  1.00  1.00   0.0  0.00  0.06  0.00  0.00
 1975 211   271   266  21.2 -15.0 89.22 14.81  0.38  0.00   0.1  0.56 0.773  1.33 13919    16  1268 12636   247  2797  8030  0.64   809  8582  1187   753 116.1 69.99  30.8 49484 .0162   290   227  1.55  0.98  88.8  50.4  0.44  1.00  0.56  0.67  1.00  1.00  1.00   0.0  0.00  0.08  0.00  0.00
 1975 212   272   267  20.2 -15.0 89.60 14.81  0.33  0.00   0.1  0.47 0.766  1.24 13918    16  1266 12636   209  2779  8045  0.64   815  8597  1194   788 116.1 71.27  31.4 49484 .0163   289   226  1.55  0.98  88.0  99.9  0.89  0.21  0.11  0.31  1.00  1.00  1.00   0.0  0.00  0.01  0.00  0.00
 1975 213   273   268  20.2 -15.0 89.98 14.81  0.28  0.00   0.0  0.38 0.760  1.14 13917    16  1265 12636   169  2762  8060  0.64   821  8612  1203   824 116.1 72.55  32.1 49484 .0163   288   225  1.55  0.98  87.2  66.1  0.57  0.86  0.43  0.56  1.00  1.00  1.00   0.0  0.00  0.01  0.00  0.00
 1975 214   274   269  19.3 -15.0 90.91 14.81  0.22  0.00   0.0  0.29 0.753  1.05 13916    16  1264 12636   131  2745  8074  0.64   828  8626  1211   859 116.1 73.77  32.7 49484 .0163   288   225  1.55  0.98  86.5  69.3  0.60  0.81  0.40  0.54  1.00  1.00  1.00   0.0  0.00  0.00  0.00  0.00
