$GROWTH ASPECTS SECONDARY OUTPUT FILE

*DSSAT Cropping System Model Ver. 4.8.2.010 -develop  JUL 08, 2024 16:11:18

*RUN   1        : 0 KG N/HA                 CSCER048 RORO7401    1
 MODEL          : CSCER048 - Wheat
 EXPERIMENT     : RORO7401 WH N RESPONSE,ROTHAMSTED  8FE(N)  (DSSAT3)
 DATA PATH      : C:\DSSAT48\Wheat\
 TREATMENT  1   : 0 KG N/HA                 CSCER048
  
@YEAR DOY   DAS   DAP TMEAN  GSTD  RSTD LAIPD LAISD  LAID  CHTD SDWAD SNWLD SNWSD  H#AD  HWUD SHRTD  PTFD  RDPD  RL1D  RL2D  RL3D  RL4D  RL5D  RL6D  RL7D  RL8D  RL9D RL10D
 1974 310     5     0   5.5     0  1.01     0  0.00     0     0  78.7     0     0     0     0  0.00  0.00 0.040  0.00  0.00  0.00  0.00  0.00  0.00  0.00  0.00  0.00  0.00
 1974 311     6     1   7.6 3.300  1.02     0  0.00     0     0  78.7     0     0     0     0  0.00  0.00 0.040  0.00  0.00  0.00  0.00  0.00  0.00  0.00  0.00  0.00  0.00
 1974 312     7     2   9.0 5.727  1.03     0  0.00     0     0  78.7     0     0     0     0  0.00  0.00 0.040  0.00  0.00  0.00  0.00  0.00  0.00  0.00  0.00  0.00  0.00
 1974 313     8     3   9.9 7.117  1.04     0  0.00     0     0  77.9     0     0     0     0  0.00  0.00 0.055  0.01  0.00  0.00  0.00  0.00  0.00  0.00  0.00  0.00  0.00
 1974 314     9     4   7.5 8.125  1.05     0  0.00     0     0  77.3     0 .0003     0     0  0.00  0.00 0.066  0.02  0.00  0.00  0.00  0.00  0.00  0.00  0.00  0.00  0.00
 1974 315    10     5   7.3 9.117  1.06     0  0.00     0     0  76.8     0 .0008     0     0  0.00  0.00 0.077  0.03  0.00  0.00  0.00  0.00  0.00  0.00  0.00  0.00  0.00
 1974 316    11     6   5.0 9.742  1.07     0  0.00     0     0  76.4     0 .0012     0     0  0.00  0.00 0.085  0.03  0.01  0.00  0.00  0.00  0.00  0.00  0.00  0.00  0.00
 1974 317    12     7   6.0 10.00  1.08     0  0.00     0     0  75.9     0 .0019     0     0  0.00  0.00 0.094  0.04  0.01  0.00  0.00  0.00  0.00  0.00  0.00  0.00  0.00
 1974 318    13     8   9.0 10.18  1.08 .0090  0.00 .0090 0.500  72.5     0 .0032     0     0  0.81  0.75 0.107  0.04  0.01  0.00  0.00  0.00  0.00  0.00  0.00  0.00  0.00
 1974 319    14     9   8.2 10.34  1.08 .0164  0.00 .0164 1.963  69.6     0 .0046     0     0  1.33  0.75 0.119  0.04  0.02  0.00  0.00  0.00  0.00  0.00  0.00  0.00  0.00
 1974 320    15    10   7.1 10.49  1.08 .0220  0.00 .0220 2.012  67.4     0 .0060     0     0  1.66  0.75 0.129  0.05  0.02  0.00  0.00  0.00  0.00  0.00  0.00  0.00  0.00
 1974 321    16    11   5.6 10.60  1.08 .0255  0.00 .0255 2.052  66.0     0 .0073     0     0  1.85  0.75 0.138  0.05  0.02  0.00  0.00  0.00  0.00  0.00  0.00  0.00  0.00
 1974 322    17    12   4.8 10.70  1.08 .0281  0.00 .0281 2.084  64.9     0 .0085     0     0  1.91  0.75 0.145  0.05  0.03  0.00  0.00  0.00  0.00  0.00  0.00  0.00  0.00
 1974 323    18    13   4.4 10.78  1.09 .0302  0.00 .0302 2.110  64.1     0 .0097     0     0  2.09  0.75 0.151  0.06  0.03  0.00  0.00  0.00  0.00  0.00  0.00  0.00  0.00
 1974 324    19    14   4.0 10.86  1.09 .0321  0.00 .0321 2.133  63.2     0 .0108     0     0  2.09  0.75 0.157  0.06  0.03  0.00  0.00  0.00  0.00  0.00  0.00  0.00  0.00
 1974 325    20    15   7.0 11.01  1.09 .0375  0.00 .0375 2.154  61.1     0 .0129     0     0  2.24  0.75 0.167  0.06  0.03  0.00  0.00  0.00  0.00  0.00  0.00  0.00  0.00
 1974 326    21    16   7.9 11.16  1.09 .0451  0.00 .0451 2.188  58.2     0 .0154     0     0  2.44  0.75 0.178  0.06  0.04  0.00  0.00  0.00  0.00  0.00  0.00  0.00  0.00
 1974 327    22    17   8.2 11.33  1.09 .0534  0.00 .0534 2.226  55.1     0 .0183     0     0  2.69  0.75 0.190  0.07  0.04  0.00  0.00  0.00  0.00  0.00  0.00  0.00  0.00
 1974 328    23    18   5.4 11.43  1.09 .0569  0.00 .0569 2.264  53.6     0 .0204     0     0  2.75  0.75 0.198  0.07  0.04  0.00  0.00  0.00  0.00  0.00  0.00  0.00  0.00
 1974 329    24    19   5.6 11.55  1.09 .0606  0.00 .0606 2.288  52.4     0 .0226     0     0  2.98  0.75 0.205  0.07  0.04  0.00  0.00  0.00  0.00  0.00  0.00  0.00  0.00
 1974 330    25    20   5.0 11.65  1.09 .0637  0.00 .0637 2.311  51.3     0 .0247     0     0  3.09  0.75 0.213  0.07  0.04  0.01  0.00  0.00  0.00  0.00  0.00  0.00  0.00
 1974 331    26    21   4.6 11.74  1.09 .0662  0.00 .0662 2.332  50.2     0 .0267     0     0  3.11  0.75 0.219  0.07  0.05  0.01  0.00  0.00  0.00  0.00  0.00  0.00  0.00
 1974 332    27    22   5.3 11.84  1.09 .0696  0.00 .0696 2.349  48.9     0 .0291     0     0  3.21  0.75 0.227  0.08  0.05  0.01  0.00  0.00  0.00  0.00  0.00  0.00  0.00
 1974 333    28    23   6.9 11.98  1.10 .0754  0.00 .0754 2.369  46.9     0 .0324     0     0  3.37  0.75 0.236  0.08  0.05  0.01  0.00  0.00  0.00  0.00  0.00  0.00  0.00
 1974 334    29    24   7.8 12.07  1.10 .0799  0.00 .0799 2.394  45.0     0 .0363     0     0  3.40  0.75 0.247  0.08  0.05  0.01  0.00  0.00  0.00  0.00  0.00  0.00  0.00
 1974 335    30    25   8.7 12.15  1.10 .0849  0.00 .0849 2.421  42.9     0 .0408     0     0  3.42  0.75 0.260  0.08  0.05  0.01  0.00  0.00  0.00  0.00  0.00  0.00  0.00
 1974 336    31    26  11.0 12.26  1.10 .0923  0.00 .0923 2.449  39.9     0 .0470     0     0  3.48  0.75 0.274  0.09  0.06  0.02  0.00  0.00  0.00  0.00  0.00  0.00  0.00
 1974 337    32    27  11.1 12.38  1.10 0.100  0.00 0.100 2.483  36.9     0 .0535     0     0  3.53  0.75 0.287  0.09  0.06  0.02  0.00  0.00  0.00  0.00  0.00  0.00  0.00
 1974 338    33    28  10.0 12.48  1.10 0.106  0.00 0.106 2.515  34.5     0 .0598     0     0  3.67  0.76 0.300  0.09  0.06  0.02  0.00  0.00  0.00  0.00  0.00  0.00  0.00
 1974 339    34    29   6.2 12.54  1.10 0.109  0.00 0.109 2.542  33.7     0 .0639     0     0  3.77  0.75 0.308  0.09  0.06  0.02  0.00  0.00  0.00  0.00  0.00  0.00  0.00
 1974 340    35    30   8.1 12.62  1.10 0.113  0.00 0.113 2.559  32.1     0 .0695     0     0  3.85  0.75 0.318  0.09  0.06  0.02  0.00  0.00  0.00  0.00  0.00  0.00  0.00
 1974 341    36    31   9.4 12.71  1.10 0.119  0.00 0.119 2.579  29.9     0 .0761     0     0  3.92  0.75 0.330  0.10  0.07  0.02  0.01  0.00  0.00  0.00  0.00  0.00  0.00
 1974 342    37    32   9.8 12.81  1.10 0.125  0.00 0.125 2.600  27.4     0 .0834     0     0  3.91  0.75 0.342  0.10  0.07  0.03  0.01  0.00  0.00  0.00  0.00  0.00  0.00
 1974 343    38    33   7.5 12.89  1.11 0.128  0.00 0.128 2.622  26.1     0 .0891     0     0  3.95  0.75 0.352  0.10  0.07  0.03  0.01  0.00  0.00  0.00  0.00  0.00  0.00
 1974 344    39    34   3.3 12.92  1.11 0.129  0.00 0.129 2.637  25.9     0 .0917     0     0  3.97  0.74 0.356  0.10  0.07  0.03  0.01  0.00  0.00  0.00  0.00  0.00  0.00
 1974 345    40    35   2.2 12.94  1.11 0.129  0.00 0.129 2.643  25.8     0 .0935     0     0  3.99  0.75 0.358  0.10  0.07  0.03  0.01  0.00  0.00  0.00  0.00  0.00  0.00
 1974 346    41    36   4.5 12.99  1.11 0.131  0.00 0.131 2.647  25.1     0 .0972     0     0  3.96  0.75 0.364  0.10  0.07  0.03  0.01  0.00  0.00  0.00  0.00  0.00  0.00
 1974 347    42    37   3.6 13.02  1.11 0.131  0.00 0.131 2.655  24.8     0 0.100     0     0  4.00  0.75 0.369  0.10  0.07  0.03  0.01  0.00  0.00  0.00  0.00  0.00  0.00
 1974 348    43    38   4.5 13.07  1.11 0.133  0.00 0.133 2.661  24.4     0 0.104     0     0  4.05  0.75 0.374  0.10  0.07  0.03  0.01  0.00  0.00  0.00  0.00  0.00  0.00
 1974 349    44    39   4.9 13.12  1.11 0.134  0.00 0.134 2.668  23.8     0 0.108     0     0  4.11  0.75 0.380  0.10  0.07  0.03  0.01  0.00  0.00  0.00  0.00  0.00  0.00
 1974 350    45    40   6.3 13.18  1.11 0.137  0.00 0.137 2.675  22.6     0 0.114     0     0  4.08  0.75 0.388  0.11  0.07  0.03  0.02  0.00  0.00  0.00  0.00  0.00  0.00
 1974 351    46    41   4.8 13.23  1.11 0.139  0.00 0.139 2.684  22.1     0 0.118     0     0  4.13  0.75 0.394  0.11  0.08  0.04  0.02  0.00  0.00  0.00  0.00  0.00  0.00
 1974 352    47    42   5.6 13.28  1.11 0.141  0.00 0.141 2.690  21.3     0 0.124     0     0  4.19  0.75 0.401  0.11  0.08  0.04  0.02  0.00  0.00  0.00  0.00  0.00  0.00
 1974 353    48    43   6.5 13.35  1.11 0.144  0.00 0.144 2.697  20.2     0 0.130     0     0  4.19  0.75 0.410  0.11  0.08  0.04  0.02  0.00  0.00  0.00  0.00  0.00  0.00
 1974 354    49    44   9.4 13.44  1.11 0.150  0.00 0.150 2.706  18.9     0 0.139     0     0  4.20  0.75 0.421  0.11  0.08  0.04  0.02  0.00  0.00  0.00  0.00  0.00  0.00
 1974 355    50    45   9.4 13.54  1.11 0.156  0.00 0.156 2.717  17.6     0 0.149     0     0  4.13  0.75 0.433  0.11  0.08  0.04  0.02  0.01  0.00  0.00  0.00  0.00  0.00
 1974 356    51    46  10.0 13.64  1.11 0.162  0.00 0.162 2.729  16.8     0 0.159     0     0  4.10  0.74 0.446  0.11  0.08  0.04  0.02  0.01  0.00  0.00  0.00  0.00  0.00
 1974 357    52    47  10.2 13.74  1.11 0.169  0.00 0.169 2.741  16.4     0 0.170     0     0  4.11  0.74 0.459  0.11  0.08  0.04  0.02  0.01  0.00  0.00  0.00  0.00  0.00
 1974 358    53    48   7.6 13.82  1.11 0.172  0.00 0.172 2.754  16.3     0 0.178     0     0  4.13  0.74 0.467  0.12  0.08  0.04  0.02  0.01  0.00  0.00  0.00  0.00  0.00
 1974 359    54    49   6.9 13.89  1.11 0.175  0.00 0.175 2.764  16.0     0 0.186     0     0  4.09  0.74 0.474  0.12  0.09  0.04  0.02  0.01  0.00  0.00  0.00  0.00  0.00
 1974 360    55    50   7.9 13.96  1.11 0.179  0.00 0.179 2.773  15.8     0 0.195     0     0  4.09  0.74 0.483  0.12  0.09  0.04  0.03  0.01  0.00  0.00  0.00  0.00  0.00
 1974 361    56    51   9.8 14.06  1.11 0.186  0.00 0.186 2.784  15.8     0 0.206     0     0  4.10  0.74 0.493  0.12  0.09  0.05  0.03  0.01  0.00  0.00  0.00  0.00  0.00
 1974 362    57    52  10.5 14.17  1.11 0.193  0.00 0.189 2.798  15.7 0.623 0.219     0     0  4.09  0.74 0.504  0.12  0.09  0.05  0.03  0.01  0.00  0.00  0.00  0.00  0.00
 1974 363    58    53  10.4 14.27  1.11 0.200  0.01 0.192 2.814  15.7 1.242 0.231     0     0  4.07  0.74 0.515  0.12  0.09  0.05  0.03  0.02  0.00  0.00  0.00  0.00  0.00
 1974 364    59    54   4.1 14.31  1.11 0.201  0.01 0.191 2.831  15.7 1.486 0.236     0     0  4.08  0.74 0.519  0.12  0.09  0.05  0.03  0.02  0.00  0.00  0.00  0.00  0.00
 1974 365    60    55   5.0 14.36  1.11 0.202  0.01 0.191 2.838  15.7 1.784 0.243     0     0  4.08  0.74 0.525  0.12  0.09  0.05  0.03  0.02  0.00  0.00  0.00  0.00  0.00
 1975   1    61    56   6.0 14.42  1.11 0.205  0.01 0.191 2.847  15.7 2.142 0.250     0     0  4.07  0.74 0.531  0.12  0.09  0.05  0.03  0.02  0.00  0.00  0.00  0.00  0.00
 1975   2    62    57   7.5 14.50  1.12 0.209  0.02 0.192 2.859  15.7 2.589 0.260     0     0  4.06  0.74 0.539  0.12  0.09  0.05  0.03  0.02  0.00  0.00  0.00  0.00  0.00
 1975   3    63    58   7.2 14.57  1.12 0.212  0.02 0.193 2.876  15.7 3.022 0.269     0     0  4.06  0.74 0.547  0.12  0.09  0.05  0.03  0.02  0.00  0.00  0.00  0.00  0.00
 1975   4    64    59   4.0 14.61  1.12 0.213  0.02 0.193 2.894  15.7 3.261 0.275     0     0  4.06  0.74 0.551  0.12  0.09  0.05  0.03  0.02  0.01  0.00  0.00  0.00  0.00
 1975   5    65    60   5.1 14.66  1.12 0.215  0.02 0.193 2.904  15.7 3.569 0.281     0     0  4.06  0.74 0.556  0.12  0.09  0.05  0.03  0.02  0.01  0.00  0.00  0.00  0.00
 1975   6    66    61   8.4 14.75  1.12 0.221  0.03 0.195 2.919  15.7 4.075 0.293     0     0  4.05  0.74 0.565  0.12  0.09  0.05  0.03  0.02  0.01  0.00  0.00  0.00  0.00
 1975   7    67    62   6.7 14.81  1.12 0.224  0.03 0.196 2.945  15.7 4.473 0.302     0     0  4.05  0.75 0.572  0.13  0.09  0.05  0.03  0.02  0.01  0.00  0.00  0.00  0.00
 1975   8    68    63   6.9 14.88  1.12 0.228  0.03 0.197 2.967  15.7 4.886 0.312     0     0  4.05  0.75 0.580  0.13  0.10  0.05  0.03  0.02  0.01  0.00  0.00  0.00  0.00
 1975   9    69    64   7.2 14.95  1.12 0.232  0.03 0.199 2.992  15.7 5.318 0.322     0     0  4.04  0.75 0.587  0.13  0.10  0.05  0.03  0.02  0.01  0.00  0.00  0.00  0.00
 1975  10    70    65   8.1 15.03  1.12 0.238  0.04 0.202 3.019  15.7 5.804 0.333     0     0  4.02  0.75 0.596  0.13  0.10  0.05  0.03  0.02  0.01  0.00  0.00  0.00  0.00
 1975  11    71    66   8.9 15.12  1.12 0.245  0.04 0.206 3.052  15.7 6.361 0.345     0     0  4.01  0.75 0.605  0.13  0.10  0.05  0.03  0.02  0.01  0.00  0.00  0.00  0.00
 1975  12    72    67   7.9 15.20  1.13 0.251  0.04 0.209 3.091  15.7 6.856 0.357     0     0  4.00  0.75 0.614  0.13  0.10  0.05  0.03  0.02  0.01  0.00  0.00  0.00  0.00
 1975  13    73    68   5.6 15.26  1.13 0.255  0.04 0.210 3.128  15.7 7.210 0.365     0     0  4.01  0.75 0.620  0.13  0.10  0.06  0.03  0.02  0.01  0.00  0.00  0.00  0.00
 1975  14    74    69   7.8 15.34  1.13 0.261  0.05 0.213 3.156  15.7 7.706 0.376     0     0  4.01  0.75 0.628  0.13  0.10  0.06  0.03  0.02  0.01  0.00  0.00  0.00  0.00
 1975  15    75    70   8.4 15.42  1.13 0.269  0.05 0.217 3.197  15.7 8.238 0.388     0     0  4.02  0.75 0.637  0.13  0.10  0.06  0.04  0.03  0.01  0.00  0.00  0.00  0.00
 1975  16    76    71   4.8 15.47  1.13 0.271  0.05 0.218 3.244  15.7 8.543 0.396     0     0  4.03  0.75 0.642  0.13  0.10  0.06  0.04  0.03  0.01  0.00  0.00  0.00  0.00
 1975  17    77    72   4.8 15.51  1.13 0.274  0.06 0.218 3.273  15.7 8.845 0.403     0     0  4.04  0.75 0.647  0.13  0.10  0.06  0.04  0.03  0.01  0.01  0.00  0.00  0.00
 1975  18    78    73   2.5 15.54  1.13 0.274  0.06 0.218 3.302  15.7 9.000 0.407     0     0  4.04  0.75 0.650  0.13  0.10  0.06  0.04  0.03  0.01  0.01  0.00  0.00  0.00
 1975  19    79    74   3.5 15.57  1.13 0.276  0.06 0.218 3.319  15.7 9.226 0.413     0     0  4.06  0.75 0.653  0.13  0.10  0.06  0.04  0.03  0.01  0.01  0.00  0.00  0.00
 1975  20    80    75   3.9 15.61  1.13 0.277  0.06 0.218 3.344  15.7 9.474 0.419     0     0  4.06  0.75 0.657  0.13  0.10  0.06  0.04  0.03  0.01  0.01  0.00  0.00  0.00
 1975  21    81    76   5.1 15.66  1.14 0.280  0.06 0.220 3.372  15.7 9.795 0.427     0     0  4.09  0.75 0.661  0.14  0.11  0.06  0.04  0.03  0.02  0.01  0.00  0.00  0.00
 1975  22    82    77   6.4 15.73  1.14 0.285  0.06 0.222 3.411  15.7 10.21 0.438     0     0  4.08  0.75 0.666  0.14  0.11  0.06  0.04  0.03  0.02  0.01  0.00  0.00  0.00
 1975  23    83    78   4.9 15.78  1.14 0.288  0.07 0.223 3.464  15.7 10.51 0.446     0     0  4.09  0.75 0.670  0.14  0.11  0.06  0.04  0.03  0.02  0.01  0.00  0.00  0.00
 1975  24    84    79   6.5 15.84  1.14 0.293  0.07 0.226 3.505  15.7 10.93 0.458     0     0  4.11  0.75 0.675  0.14  0.11  0.07  0.04  0.03  0.02  0.01  0.00  0.00  0.00
 1975  25    85    80   7.8 15.92  1.15 0.301  0.07 0.230 3.564  15.7 11.43 0.472     0     0  4.12  0.75 0.682  0.14  0.11  0.07  0.04  0.03  0.02  0.01  0.00  0.00  0.00
 1975  26    86    81   4.7 15.97  1.15 0.304  0.07 0.231 3.637  15.7 11.73 0.480     0     0  4.14  0.75 0.686  0.14  0.11  0.07  0.05  0.04  0.02  0.01  0.00  0.00  0.00
 1975  27    87    82   4.2 16.01  1.15 0.306  0.07 0.232 3.683  15.7 11.99 0.488     0     0  4.14  0.75 0.689  0.14  0.11  0.07  0.05  0.04  0.02  0.01  0.00  0.00  0.00
 1975  28    88    83   4.1 16.05  1.15 0.309  0.08 0.232 3.725  15.7 12.36 0.496     0     0  4.13  0.75 0.692  0.14  0.11  0.07  0.05  0.04  0.02  0.01  0.00  0.00  0.00
 1975  29    89    84   5.7 16.11  1.15 0.313  0.08 0.234 3.769  15.7 12.86 0.507     0     0  4.13  0.75 0.697  0.15  0.11  0.07  0.05  0.04  0.02  0.01  0.00  0.00  0.00
 1975  30    90    85   7.8 16.18  1.16 0.322  0.08 0.238 3.831  15.7 13.57 0.522     0     0  4.13  0.75 0.703  0.15  0.11  0.07  0.05  0.04  0.02  0.02  0.00  0.00  0.00
 1975  31    91    86   9.5 16.28  1.16 0.336  0.09 0.247 3.922  15.7 14.42 0.540     0     0  4.13  0.75 0.711  0.15  0.12  0.07  0.05  0.04  0.02  0.02  0.00  0.00  0.00
 1975  32    92    87   6.8 16.35  1.16 0.343  0.09 0.250 4.036  15.7 15.03 0.554     0     0  4.13  0.75 0.717  0.15  0.12  0.07  0.05  0.04  0.02  0.02  0.00  0.00  0.00
 1975  33    93    88   4.5 16.39  1.17 0.346  0.10 0.250 4.121  15.7 15.44 0.563     0     0  4.14  0.75 0.721  0.15  0.12  0.08  0.05  0.04  0.02  0.02  0.00  0.00  0.00
 1975  34    94    89   4.8 16.44  1.17 0.349  0.10 0.251 4.180  15.7 15.87 0.573     0     0  4.14  0.75 0.724  0.15  0.12  0.08  0.05  0.04  0.02  0.02  0.00  0.00  0.00
 1975  35    95    90   3.5 16.48  1.17 0.351  0.10 0.251 4.243  15.7 16.18 0.580     0     0  4.13  0.75 0.727  0.15  0.12  0.08  0.05  0.04  0.02  0.02  0.00  0.00  0.00
 1975  36    96    91   3.5 16.51  1.17 0.353  0.10 0.251 4.291  15.7 16.49 0.587     0     0  4.14  0.75 0.730  0.15  0.12  0.08  0.05  0.04  0.02  0.02  0.00  0.00  0.00
 1975  37    97    92   2.5 16.53  1.18 0.354  0.10 0.251 4.341  15.7 16.72 0.592     0     0  4.15  0.75 0.732  0.15  0.12  0.08  0.05  0.04  0.02  0.02  0.00  0.00  0.00
 1975  38    98    93   4.9 16.58  1.18 0.358  0.11 0.252 4.378  15.7 17.16 0.603     0     0  4.17  0.75 0.736  0.16  0.12  0.08  0.05  0.04  0.03  0.02  0.00  0.00  0.00
 1975  39    99    94   3.6 16.62  1.18 0.360  0.11 0.252 4.453  15.7 17.49 0.611     0     0  4.18  0.75 0.739  0.16  0.13  0.08  0.06  0.05  0.03  0.02  0.00  0.00  0.00
 1975  40   100    95   2.6 16.65  1.18 0.361  0.11 0.252 4.510  15.7 17.73 0.617     0     0  4.20  0.75 0.741  0.16  0.13  0.09  0.06  0.05  0.03  0.02  0.00  0.00  0.00
 1975  41   101    96   2.9 16.68  1.18 0.362  0.11 0.252 4.553  15.7 17.99 0.623     0     0  4.20  0.75 0.744  0.16  0.13  0.09  0.06  0.05  0.03  0.02  0.00  0.00  0.00
 1975  42   102    97   4.6 21.00  1.19 0.366  0.11 0.253 4.602  15.7 18.40 0.634     0     0  4.20  0.75 0.747  0.16  0.13  0.09  0.06  0.05  0.03  0.02  0.00  0.00  0.00
 1975  43   103    98   7.6 21.04  1.19 0.380  0.12 0.263 4.681  15.7 19.10 0.652     0     0  4.20  0.75 0.754  0.16  0.13  0.09  0.06  0.05  0.03  0.02  0.00  0.00  0.00
 1975  44   104    99   6.6 21.07  1.20 0.390  0.12 0.269 4.817  15.7 19.69 0.668     0     0  4.21  0.75 0.759  0.17  0.13  0.09  0.06  0.05  0.03  0.03  0.00  0.00  0.00
 1975  45   105   100   3.0 21.08  1.20 0.392  0.12 0.270 4.937  15.7 19.97 0.675     0     0  4.21  0.75 0.762  0.17  0.13  0.09  0.06  0.05  0.03  0.03  0.00  0.00  0.00
 1975  46   106   101   2.4 21.09  1.20 0.394  0.12 0.270 4.993  15.7 20.18 0.681     0     0  4.21  0.75 0.764  0.17  0.13  0.09  0.06  0.05  0.03  0.03  0.00  0.00  0.00
 1975  47   107   102   3.5 21.11  1.20 0.396  0.13 0.271 5.040  15.7 20.51 0.690     0     0  4.22  0.75 0.767  0.17  0.14  0.09  0.06  0.05  0.03  0.03  0.00  0.00  0.00
 1975  48   108   103   5.7 21.14  1.21 0.404  0.13 0.275 5.110  15.7 21.02 0.704     0     0  4.21  0.75 0.771  0.17  0.14  0.09  0.06  0.05  0.03  0.03  0.00  0.00  0.00
 1975  49   109   104   4.9 21.16  1.21 0.410  0.13 0.279 5.225  15.7 21.44 0.716     0     0  4.22  0.75 0.775  0.17  0.14  0.09  0.06  0.05  0.03  0.03  0.00  0.00  0.00
 1975  50   110   105   4.4 21.18  1.22 0.415  0.13 0.282 5.328  15.7 21.81 0.728     0     0  4.25  0.75 0.779  0.17  0.14  0.10  0.07  0.06  0.03  0.03  0.00  0.00  0.00
 1975  51   111   106   4.2 21.20  1.22 0.420  0.14 0.284 5.422  15.7 22.17 0.739     0     0  4.28  0.75 0.782  0.18  0.15  0.10  0.07  0.06  0.04  0.03  0.00  0.00  0.00
 1975  52   112   107   3.4 21.21  1.22 0.423  0.14 0.285 5.515  15.7 22.46 0.749     0     0  4.30  0.75 0.785  0.18  0.15  0.10  0.07  0.06  0.04  0.03  0.00  0.00  0.00
 1975  53   113   108   4.1 21.23  1.23 0.427  0.14 0.288 5.592  15.7 22.81 0.760     0     0  4.32  0.75 0.788  0.19  0.15  0.11  0.08  0.07  0.04  0.04  0.00  0.00  0.00
 1975  54   114   109   5.1 21.26  1.23 0.434  0.14 0.292 5.686  15.7 23.25 0.776     0     0  4.34  0.75 0.793  0.19  0.16  0.11  0.08  0.07  0.04  0.04  0.01  0.00  0.00
 1975  55   115   110   5.0 21.28  1.24 0.440  0.14 0.296 5.807  15.7 23.67 0.791     0     0  4.37  0.75 0.797  0.20  0.16  0.12  0.08  0.07  0.05  0.04  0.01  0.00  0.00
 1975  56   116   111   2.4 21.29  1.24 0.442  0.15 0.296 5.925  15.7 23.87 0.799     0     0  4.37  0.75 0.799  0.20  0.16  0.12  0.08  0.07  0.05  0.04  0.01  0.00  0.00
 1975  57   117   112   5.1 21.31  1.24 0.448  0.15 0.300 5.983  15.7 24.30 0.816     0     0  4.40  0.75 0.803  0.20  0.17  0.12  0.09  0.08  0.05  0.04  0.01  0.00  0.00
 1975  58   118   113   3.7 21.33  1.25 0.452  0.15 0.302 6.110  15.7 24.62 0.828     0     0  4.43  0.75 0.806  0.21  0.17  0.13  0.09  0.08  0.05  0.05  0.01  0.00  0.00
 1975  59   119   114   4.6 21.35  1.25 0.457  0.15 0.305 6.203  15.7 25.01 0.845     0     0  4.45  0.75 0.810  0.22  0.18  0.13  0.10  0.09  0.05  0.05  0.01  0.00  0.00
 1975  60   120   115   7.0 21.38  1.26 0.470  0.16 0.313 6.323  15.7 25.60 0.871     0     0  4.46  0.75 0.815  0.22  0.18  0.14  0.10  0.09  0.06  0.05  0.01  0.00  0.00
 1975  61   121   116   7.3 21.43  1.27 0.483  0.16 0.323 6.507  15.7 26.23 0.899     0     0  4.46  0.75 0.821  0.22  0.19  0.14  0.10  0.09  0.06  0.05  0.01  0.00  0.00
 1975  62   122   117   8.8 21.49  1.28 0.502  0.16 0.338 6.705  15.7 26.98 0.933     0     0  4.47  0.75 0.829  0.22  0.19  0.14  0.10  0.09  0.06  0.06  0.01  0.00  0.00
 1975  63   123   118   6.8 21.53  1.29 0.513  0.17 0.345 6.947  15.7 27.57 0.960     0     0  4.48  0.75 0.834  0.23  0.19  0.15  0.11  0.10  0.06  0.06  0.01  0.00  0.00
 1975  64   124   119   6.1 21.57  1.29 0.522  0.17 0.351 7.137  15.7 28.09 0.985     0     0  4.48  0.75 0.839  0.23  0.19  0.15  0.11  0.10  0.06  0.06  0.01  0.00  0.00
 1975  65   125   120   6.9 21.61  1.30 0.533  0.17 0.359 7.311  15.7 28.69 1.014     0     0  4.48  0.75 0.845  0.23  0.20  0.15  0.11  0.10  0.06  0.06  0.01  0.00  0.00
 1975  66   126   121   7.1 21.66  1.31 0.545  0.18 0.367 7.513  15.7 29.31 1.044     0     0  4.48  0.75 0.851  0.24  0.20  0.15  0.11  0.10  0.07  0.06  0.01  0.00  0.00
 1975  67   127   122   4.5 21.69  1.31 0.550  0.18 0.370 7.723  15.7 29.70 1.064     0     0  4.49  0.75 0.854  0.24  0.20  0.16  0.11  0.10  0.07  0.06  0.01  0.00  0.00
 1975  68   128   123   4.8 21.72  1.32 0.556  0.18 0.373 7.858  15.7 30.14 1.084     0     0  4.49  0.75 0.858  0.24  0.20  0.16  0.11  0.10  0.07  0.06  0.01  0.00  0.00
 1975  69   129   124   3.2 21.74  1.32 0.559  0.18 0.374 8.003  15.7 30.44 1.099     0     0  4.49  0.75 0.861  0.24  0.21  0.16  0.11  0.11  0.07  0.06  0.01  0.00  0.00
 1975  70   130   125   4.0 21.76  1.33 0.563  0.19 0.377 8.104  15.7 30.81 1.117     0     0  4.50  0.75 0.864  0.24  0.21  0.16  0.12  0.11  0.07  0.06  0.01  0.00  0.00
 1975  71   131   126   4.8 21.80  1.34 0.569  0.19 0.380 8.230  15.7 31.25 1.138     0     0  4.50  0.75 0.868  0.24  0.21  0.16  0.12  0.11  0.07  0.07  0.01  0.00  0.00
 1975  72   132   127   3.7 21.82  1.34 0.573  0.19 0.382 8.384  15.7 31.60 1.155     0     0  4.49  0.75 0.871  0.24  0.21  0.16  0.12  0.11  0.07  0.07  0.01  0.00  0.00
 1975  73   133   128   3.0 21.84  1.34 0.575  0.19 0.383 8.505  15.7 31.88 1.169     0     0  4.50  0.76 0.874  0.25  0.21  0.16  0.12  0.11  0.07  0.07  0.01  0.00  0.00
 1975  74   134   129   2.6 21.86  1.35 0.577  0.19 0.383 8.605  15.7 32.12 1.181     0     0  4.51  0.76 0.876  0.25  0.21  0.16  0.12  0.11  0.07  0.07  0.01  0.00  0.00
 1975  75   135   130   3.0 21.88  1.35 0.580  0.20 0.384 8.692  15.7 32.40 1.195     0     0  4.52  0.76 0.878  0.25  0.22  0.17  0.12  0.11  0.07  0.07  0.01  0.00  0.00
 1975  76   136   131   2.1 21.89  1.35 0.581  0.20 0.384 8.793  15.7 32.60 1.205     0     0  4.54  0.76 0.880  0.26  0.22  0.17  0.13  0.12  0.08  0.07  0.02  0.00  0.00
 1975  77   137   132   2.0 21.91  1.36 0.582  0.20 0.384 8.867  15.7 32.79 1.215     0     0  4.55  0.76 0.882  0.26  0.23  0.18  0.13  0.12  0.08  0.07  0.02  0.00  0.00
 1975  78   138   133   1.5 21.92  1.36 0.583  0.20 0.384 8.938  15.7 32.92 1.222     0     0  4.55  0.76 0.883  0.26  0.23  0.18  0.13  0.12  0.08  0.07  0.02  0.00  0.00
 1975  79   139   134   2.5 21.93  1.36 0.585  0.20 0.384 8.990  15.7 33.16 1.235     0     0  4.55  0.76 0.885  0.26  0.23  0.18  0.13  0.12  0.08  0.07  0.02  0.00  0.00
 1975  80   140   135   4.8 21.97  1.37 0.591  0.20 0.389 9.081  15.7 33.61 1.260     0     0  4.56  0.76 0.889  0.27  0.23  0.18  0.13  0.12  0.08  0.08  0.02  0.00  0.00
 1975  81   141   136   4.6 22.00  1.38 0.597  0.21 0.392 9.258  15.7 34.04 1.283     0     0  4.57  0.76 0.893  0.27  0.23  0.18  0.13  0.13  0.08  0.08  0.02  0.00  0.00
 1975  82   142   137   5.9 22.04  1.39 0.607  0.21 0.399 9.425  15.7 34.59 1.314     0     0  4.59  0.76 0.898  0.28  0.24  0.19  0.14  0.13  0.09  0.08  0.02  0.00  0.00
 1975  83   143   138   5.8 22.08  1.39 0.619  0.21 0.408 9.647  15.7 35.13 1.345     0     0  4.62  0.76 0.902  0.29  0.25  0.20  0.15  0.14  0.09  0.09  0.02  0.00  0.00
 1975  84   144   139   4.6 22.11  1.40 0.627  0.21 0.413 9.864  15.7 35.56 1.371     0     0  4.64  0.76 0.906  0.29  0.25  0.21  0.15  0.14  0.09  0.09  0.02  0.00  0.00
 1975  85   145   140   5.2 22.14  1.41 0.636  0.22 0.420 10.04  15.7 36.05 1.402     0     0  4.64  0.76 0.910  0.30  0.26  0.21  0.15  0.14  0.10  0.09  0.02  0.00  0.00
 1975  86   146   141   2.2 22.16  1.41 0.638  0.22 0.420 10.24  15.7 36.26 1.415     0     0  4.65  0.76 0.912  0.30  0.26  0.21  0.15  0.15  0.10  0.09  0.02  0.00  0.00
 1975  87   147   142   1.4 22.17  1.42 0.639  0.22 0.420 10.33  15.7 36.39 1.424     0     0  4.66  0.76 0.913  0.30  0.26  0.21  0.16  0.15  0.10  0.09  0.02  0.00  0.00
 1975  88   148   143   2.8 22.18  1.42 0.642  0.22 0.421 10.39  15.7 36.65 1.441     0     0  4.67  0.76 0.916  0.31  0.27  0.22  0.16  0.15  0.10  0.10  0.02  0.00  0.00
 1975  89   149   144   2.1 22.20  1.42 0.643  0.22 0.422 10.50  15.7 36.85 1.454     0     0  4.68  0.76 0.917  0.31  0.27  0.22  0.16  0.15  0.10  0.10  0.02  0.00  0.00
 1975  90   150   145   3.4 22.22  1.43 0.647  0.22 0.424 10.58  15.7 37.16 1.475     0     0  4.69  0.76 0.920  0.32  0.28  0.23  0.17  0.16  0.11  0.10  0.03  0.00  0.00
 1975  91   151   146   4.2 22.25  1.44 0.653  0.23 0.428 10.72  15.7 37.55 1.502     0     0  4.71  0.76 0.924  0.33  0.29  0.24  0.17  0.16  0.11  0.11  0.03  0.00  0.00
 1975  92   152   147   4.9 22.28  1.44 0.662  0.23 0.434 10.89  15.7 38.01 1.535     0     0  4.72  0.76 0.928  0.33  0.29  0.24  0.18  0.17  0.12  0.11  0.03  0.00  0.00
 1975  93   153   148   2.5 22.30  1.45 0.664  0.23 0.435 11.09  15.7 38.25 1.553     0     0  4.73  0.76 0.930  0.34  0.30  0.25  0.18  0.17  0.12  0.11  0.03  0.00  0.00
 1975  94   154   149   2.5 22.31  1.45 0.666  0.23 0.436 11.20  15.7 38.48 1.570     0     0  4.74  0.76 0.932  0.34  0.30  0.25  0.19  0.18  0.12  0.11  0.03  0.00  0.00
 1975  95   155   150   1.9 22.33  1.46 0.668  0.23 0.436 11.30  15.7 38.66 1.584     0     0  4.75  0.76 0.933  0.35  0.30  0.25  0.19  0.18  0.12  0.12  0.03  0.00  0.00
 1975  96   156   151   3.4 22.35  1.46 0.672  0.23 0.439 11.38  15.7 38.98 1.609     0     0  4.76  0.76 0.936  0.35  0.31  0.26  0.19  0.18  0.12  0.12  0.03  0.00  0.00
 1975  97   157   152   4.1 22.38  1.47 0.679  0.24 0.442 11.53  15.7 39.49 1.639     0     0  4.77  0.76 0.939  0.36  0.32  0.27  0.20  0.19  0.13  0.12  0.03  0.00  0.00
 1975  98   158   153   3.2 22.40  1.47 0.683  0.24 0.444 11.71  15.7 39.88 1.664     0     0  4.79  0.76 0.942  0.37  0.33  0.27  0.20  0.19  0.13  0.13  0.04  0.00  0.00
 1975  99   159   154   1.6 22.41  1.48 0.684  0.24 0.444 11.85  15.7 40.08 1.677     0     0  4.80  0.76 0.943  0.37  0.33  0.28  0.21  0.20  0.13  0.13  0.04  0.00  0.00
 1975 100   160   155   2.9 22.43  1.48 0.687  0.24 0.445 11.92  15.7 40.44 1.700     0     0  4.81  0.76 0.946  0.38  0.34  0.28  0.21  0.20  0.14  0.13  0.04  0.00  0.00
 1975 101   161   156   6.6 22.47  1.49 0.705  0.25 0.458 12.06  15.7 41.25 1.754     0     0  4.82  0.77 0.951  0.39  0.34  0.29  0.22  0.21  0.14  0.14  0.04  0.00  0.00
 1975 102   162   157  10.3 22.54  1.51 0.745  0.25 0.491 12.35  15.7 42.52 1.840     0     0  4.84  0.76 0.960  0.40  0.35  0.30  0.22  0.21  0.15  0.14  0.04  0.00  0.00
 1975 103   163   158   9.9 22.60  1.53 0.781  0.26 0.520 12.82  15.7 43.75 1.927     0     0  4.84  0.76 0.968  0.41  0.36  0.31  0.23  0.22  0.15  0.15  0.04  0.00  0.00
 1975 104   164   159  10.1 22.66  1.55 0.815  0.27 0.547 13.28  15.7 45.01 2.017     0     0  4.84  0.75 0.976  0.41  0.37  0.31  0.23  0.23  0.15  0.15  0.04  0.00  0.00
 1975 105   165   160   9.0 22.71  1.57 0.841  0.27 0.567 13.74  15.7 46.13 2.099     0     0  4.84  0.75 0.984  0.42  0.37  0.32  0.24  0.23  0.16  0.15  0.05  0.00  0.00
 1975 106   166   161   8.4 22.75  1.58 0.863  0.28 0.583 14.16  15.7 47.19 2.177     0     0  4.84  0.75 0.990  0.43  0.39  0.33  0.25  0.24  0.16  0.16  0.05  0.00  0.00
 1975 107   167   162   9.8 22.80  1.60 0.892  0.29 0.605 14.56  15.7 48.42 2.271     0     0  4.84  0.75 0.998  0.44  0.39  0.33  0.25  0.24  0.17  0.16  0.05  0.00  0.00
 1975 108   168   163  12.4 22.86  1.62 0.928  0.30 0.632 15.02  15.7 49.98 2.392     0     0  4.84  0.75 1.009  0.45  0.40  0.35  0.26  0.25  0.17  0.17  0.05  0.00  0.00
 1975 109   169   164  11.4 22.92  1.65 0.960  0.30 0.657 15.61  15.7 51.42 2.507     0     0  4.83  0.74 1.018  0.46  0.41  0.35  0.27  0.26  0.18  0.17  0.05  0.00  0.00
 1975 110   170   165   8.9 22.96  1.66 0.988  0.31 0.675 16.16  15.7 52.97 2.599     0     0  4.82  0.74 1.025  0.47  0.43  0.37  0.28  0.27  0.18  0.18  0.06  0.00  0.00
 1975 111   171   166  11.0 23.00  1.69 1.024  0.32 0.701 16.59  15.7 54.91 2.718     0     0  4.82  0.74 1.034  0.48  0.44  0.38  0.28  0.28  0.19  0.19  0.06  0.00  0.00
 1975 112   172   167  12.8 23.06  1.71 1.073  0.34 0.737 17.13  15.7 57.17 2.860     0     0  4.81  0.74 1.045  0.50  0.45  0.39  0.30  0.29  0.20  0.19  0.06  0.00  0.00
 1975 113   173   168  11.8 23.10  1.73 1.114  0.35 0.767 17.76  15.7 59.24 2.996     0     0  4.80  0.74 1.055  0.51  0.46  0.40  0.30  0.29  0.20  0.20  0.06  0.00  0.00
 1975 114   174   169  11.9 23.15  1.76 1.155  0.36 0.796 18.34  15.7 61.35 3.136     0     0  4.79  0.74 1.064  0.53  0.48  0.42  0.32  0.31  0.21  0.21  0.07  0.00  0.00
 1975 115   175   170  11.6 23.19  1.78 1.192  0.37 0.822 18.93  15.7 63.43 3.280     0     0  4.78  0.73 1.074  0.54  0.49  0.42  0.32  0.31  0.22  0.21  0.07  0.00  0.00
 1975 116   176   171  13.9 23.24  1.81 1.236  0.38 0.853 19.51  15.7 65.91 3.455     0     0  4.77  0.73 1.085  0.55  0.49  0.43  0.33  0.32  0.22  0.22  0.07  0.00  0.00
 1975 117   177   172  10.6 23.27  1.83 1.268  0.39 0.874 20.21  15.7 67.81 3.590     0     0  4.76  0.73 1.094  0.55  0.50  0.43  0.33  0.32  0.22  0.22  0.07  0.00  0.00
 1975 118   178   173  13.8 23.32  1.86 1.316  0.40 0.913 20.75  15.7 69.48 3.769     0     0  4.75  0.73 1.105  0.56  0.51  0.44  0.34  0.33  0.23  0.22  0.07  0.01  0.00
 1975 119   179   174   9.6 23.35  1.88 1.350  0.42 0.933 21.45  15.7 72.04 3.895     0     0  4.74  0.73 1.113  0.57  0.52  0.45  0.35  0.34  0.23  0.23  0.08  0.01  0.00
 1975 120   180   175   7.9 23.37  1.89 1.372  0.43 0.944 21.94  15.7 74.17 4.003     0     0  4.73  0.73 1.120  0.58  0.53  0.47  0.35  0.35  0.24  0.24  0.08  0.01  0.00
 1975 121   181   176  10.1 23.40  1.91 1.408  0.46 0.946 22.35  15.7 80.37 4.142     0     0  4.71  0.73 1.128  0.59  0.54  0.47  0.36  0.35  0.24  0.24  0.08  0.01  0.00
 1975 122   182   177  12.7 23.44  1.94 1.452  0.50 0.953 22.87  15.7 87.30 4.321     0     0  4.69  0.73 1.139  0.60  0.55  0.48  0.37  0.36  0.25  0.24  0.08  0.01  0.00
 1975 123   183   178   7.3 23.46  1.96 1.471  0.53 0.942 23.53  15.7 92.82 4.426     0     0  4.67  0.74 1.145  0.61  0.56  0.49  0.38  0.37  0.26  0.25  0.08  0.01  0.00
 1975 124   184   179   7.5 23.48  1.97 1.491  0.56 0.932 23.91  15.7 98.37 4.538     0     0  4.65  0.74 1.151  0.63  0.57  0.51  0.39  0.38  0.26  0.26  0.09  0.01  0.00
 1975 125   185   180   8.2 23.50  1.99 1.515  0.58 0.938 24.31  15.7 101.9 4.663     0     0  4.65  0.74 1.158  0.64  0.59  0.52  0.40  0.39  0.27  0.27  0.09  0.01  0.00
 1975 126   186   181   9.5 23.53  2.01 1.547  0.58 0.970 24.74  15.7 101.9 4.811     0     0  4.65  0.74 1.165  0.66  0.60  0.53  0.41  0.40  0.28  0.27  0.09  0.01  0.00
 1975 127   187   182  10.6 23.53  2.05 1.584  0.60 0.988 25.34  15.7 105.5 4.980     0     0  4.64  0.74 1.174  0.66  0.61  0.54  0.41  0.40  0.28  0.28  0.09  0.01  0.00
 1975 128   188   183  12.2 23.53  2.09 1.630  0.62 1.013 26.22  15.7 109.2 5.178     0     0  4.64  0.74 1.184  0.68  0.62  0.55  0.42  0.41  0.29  0.28  0.10  0.01  0.00
 1975 129   189   184  10.3 23.53  2.12 1.674  0.64 1.035 27.24  15.7 113.6 5.349     0     0  4.63  0.74 1.192  0.69  0.63  0.56  0.43  0.42  0.29  0.29  0.10  0.02  0.00
 1975 130   190   185  11.0 23.53  2.16 1.721  0.66 1.057 28.10  15.7 118.2 5.535     0     0  4.62  0.74 1.201  0.71  0.65  0.58  0.44  0.43  0.30  0.30  0.10  0.02  0.00
 1975 131   191   186   9.2 23.53  2.19 1.757  0.69 1.069 29.01  15.7 122.8 5.696     0     0  4.62  0.74 1.209  0.71  0.65  0.58  0.45  0.44  0.31  0.30  0.10  0.02  0.00
 1975 132   192   187   7.2 23.53  2.22 1.779  0.71 1.070 29.78  15.7 126.8 5.823     0     0  4.61  0.75 1.215  0.72  0.66  0.59  0.45  0.44  0.31  0.30  0.11  0.02  0.00
 1975 133   193   188  11.0 30.02  2.25 1.826  0.75 1.078 30.38  15.7 130.9 6.018     0     0  4.61  0.75 1.224  0.73  0.67  0.60  0.46  0.45  0.31  0.31  0.11  0.02  0.00
 1975 134   194   189  10.1 30.48  2.29 1.869  0.78 1.084 31.30  15.7 135.1 6.202     0     0  4.60  0.75 1.232  0.74  0.68  0.60  0.46  0.45  0.32  0.31  0.11  0.02  0.00
 1975 135   195   190   8.4 30.85  2.31 1.894  0.82 1.074 32.14  15.7 139.4 6.356     0     0  4.59  0.75 1.239  0.74  0.68  0.61  0.46  0.46  0.32  0.31  0.11  0.02  0.00
 1975 136   196   191   6.9 31.16  2.34 1.911  0.85 1.060 32.85  15.7 143.6 6.483     0     0  4.59  0.75 1.245  0.74  0.68  0.61  0.47  0.46  0.32  0.32  0.11  0.02  0.00
 1975 137   197   192   7.2 31.48  2.36 1.929  0.88 1.048 33.42  15.7 147.9 6.615     0     0  4.58  0.75 1.251  0.74  0.68  0.61  0.47  0.46  0.32  0.32  0.11  0.02  0.00
 1975 138   198   193   8.4 31.85  2.39 1.956  0.91 1.042 34.02  15.7 152.2 6.769     0     0  4.57  0.76 1.258  0.75  0.69  0.61  0.47  0.46  0.32  0.32  0.11  0.02  0.00
 1975 139   199   194  10.2 32.30  2.42 2.001  0.93 1.074 34.71  15.7 152.2 6.959     0     0  4.60  0.76 1.266  0.77  0.71  0.63  0.48  0.47  0.33  0.33  0.12  0.02  0.00
 1975 140   200   195  11.8 32.82  2.46 2.046  0.97 1.079 35.57  15.7 157.4 7.185     0     0  4.61  0.76 1.276  0.79  0.72  0.65  0.50  0.49  0.34  0.34  0.12  0.03  0.00
 1975 141   201   196  11.7 33.34  2.50 2.090  1.00 1.087 36.55  15.7 161.9 7.416     0     0  4.62  0.76 1.285  0.80  0.74  0.67  0.51  0.50  0.35  0.35  0.12  0.03  0.00
 1975 142   202   197   7.8 33.69  2.53 2.112  1.03 1.078 37.52  15.7 166.6 7.574     0     0  4.61  0.76 1.292  0.81  0.75  0.67  0.51  0.50  0.35  0.35  0.12  0.03  0.00
 1975 143   203   198   7.2 34.01  2.55 2.132  1.06 1.068 38.17  15.7 171.2 7.722     0     0  4.62  0.77 1.298  0.82  0.76  0.68  0.52  0.51  0.36  0.36  0.13  0.03  0.00
 1975 144   204   199   6.1 34.28  2.57 2.146  1.09 1.054 38.78  15.7 175.8 7.848     0     0  4.61  0.77 1.303  0.83  0.76  0.69  0.53  0.52  0.36  0.36  0.13  0.03  0.00
 1975 145   205   200   9.7 34.72  2.60 2.183  1.10 1.081 39.28  15.7 175.8 8.051     0     0  4.63  0.77 1.311  0.84  0.77  0.70  0.53  0.52  0.37  0.36  0.13  0.03  0.00
 1975 146   206   201  11.8 35.24  2.64 2.230  1.11 1.116 40.09  15.7 175.8 8.301     0     0  4.66  0.77 1.320  0.86  0.79  0.71  0.55  0.54  0.38  0.37  0.13  0.03  0.00
 1975 147   207   202  12.6 35.80  2.68 2.278  1.15 1.129 41.07  15.7 180.8 8.575     0     0  4.67  0.77 1.331  0.87  0.80  0.73  0.56  0.55  0.38  0.38  0.14  0.03  0.00
 1975 148   208   203  14.4 36.44  2.73 2.314  1.18 1.130 42.12  15.7 185.8 8.894     0     0  4.68  0.77 1.343  0.88  0.82  0.74  0.57  0.56  0.39  0.39  0.14  0.04  0.00
 1975 149   209   204   9.0 36.84  2.76 2.337  1.21 1.123 43.32  15.7 190.9 9.097     0     0  4.68  0.78 1.350  0.89  0.82  0.74  0.57  0.56  0.39  0.39  0.14  0.04  0.00
 1975 150   210   205   7.7 37.18  2.79 2.356  1.22 1.133 44.07  15.7 191.5 9.272     0     0  4.69  0.78 1.356  0.90  0.83  0.75  0.58  0.57  0.40  0.39  0.14  0.04  0.00
 1975 151   211   206   6.1 37.45  2.81 2.368  1.23 1.138 44.71  15.7 191.9 9.413     0     0  4.72  0.78 1.361  0.91  0.84  0.77  0.59  0.58  0.41  0.40  0.15  0.04  0.00
 1975 152   212   207   7.6 37.79  2.83 2.385  1.24 1.147 45.23  15.7 192.5 9.590     0     0  4.74  0.78 1.368  0.93  0.86  0.78  0.60  0.59  0.41  0.41  0.15  0.04  0.00
 1975 153   213   208   7.7 38.13  2.86 2.403  1.25 1.157 45.85  15.7 193.0 9.774     0     0  4.76  0.78 1.374  0.94  0.87  0.79  0.60  0.60  0.42  0.41  0.15  0.04  0.00
 1975 154   214   209   7.5 38.46  2.88 2.420  1.25 1.166 46.50  15.7 193.6 9.954     0     0  4.78  0.78 1.380  0.96  0.88  0.80  0.62  0.61  0.43  0.42  0.15  0.04  0.00
 1975 155   215   210   8.4 38.84  2.91 2.440  1.26 1.178 47.12  15.7 194.2 10.16     0     0  4.80  0.79 1.387  0.97  0.89  0.81  0.62  0.61  0.43  0.43  0.16  0.04  0.00
 1975 156   216   211  12.5 39.39  2.95 2.476  1.27 1.202 47.82  15.7 195.2 10.47     0     0  4.82  0.79 1.397  0.98  0.90  0.82  0.63  0.62  0.44  0.43  0.16  0.05  0.00
 1975 157   217   212  17.8 40.21  3.02 2.525  1.29 1.234 48.86  15.7 196.5 10.92     0     0  4.86  0.79 1.412  1.00  0.92  0.84  0.64  0.64  0.45  0.44  0.16  0.05  0.00
 1975 158   218   213  18.0 41.11  3.11 2.525  1.31 1.213 50.51  15.7 196.5 11.39     0     0  4.89  0.79 1.427  1.02  0.94  0.86  0.66  0.65  0.46  0.45  0.17  0.05  0.01
 1975 159   219   214  15.7 41.89  3.19 2.525  1.33 1.196 52.77  15.7 196.5 11.81     0     0  4.93  0.80 1.440  1.03  0.96  0.87  0.67  0.66  0.47  0.46  0.17  0.05  0.01
 1975 160   220   215  15.9 42.69  3.27 2.525  1.35 1.179 54.73  15.7 196.5 12.23     0     0  4.97  0.80 1.453  1.05  0.98  0.89  0.68  0.67  0.48  0.47  0.17  0.05  0.01
 1975 161   221   216  15.3 43.45  3.35 2.525  1.36 1.164 56.71  15.7 196.5 12.66     0     0  5.02  0.81 1.465  1.07  0.99  0.91  0.70  0.69  0.48  0.48  0.18  0.05  0.01
 1975 162   222   217  16.9 44.29  3.43 2.525  1.38 1.148 58.63  15.7 196.5 13.13     0     0  5.07  0.81 1.479  1.09  1.01  0.92  0.71  0.70  0.49  0.49  0.18  0.06  0.01
 1975 163   223   218  17.9 45.19  3.52 2.525  1.39 1.132 60.73  15.7 196.5 13.64     0     0  5.13  0.82 1.494  1.11  1.03  0.94  0.72  0.71  0.50  0.50  0.18  0.06  0.01
 1975 164   224   219  18.0 46.09  3.61 2.525  1.41 1.116 62.97  15.7 196.5 14.17     0     0  5.18  0.83 1.509  1.13  1.05  0.96  0.74  0.73  0.51  0.51  0.19  0.06  0.01
 1975 165   225   220  17.5 46.96  3.70 2.525  1.42 1.102 65.23  15.7 196.5 14.69     0     0  5.22  0.83 1.523  1.14  1.06  0.97  0.74  0.73  0.52  0.51  0.19  0.06  0.01
 1975 166   226   221  14.9 47.71  3.77 2.525  1.44 1.090 67.41  15.7 196.5 15.14     0     0  5.27  0.84 1.535  1.15  1.07  0.98  0.75  0.74  0.52  0.52  0.19  0.06  0.01
 1975 167   227   222  10.4 48.23  3.82 2.525  1.44 1.082 69.27  15.7 196.5 15.45     0     0  5.31  0.85 1.544  1.16  1.08  0.98  0.76  0.75  0.53  0.52  0.19  0.06  0.01
 1975 168   228   223  13.8 48.92  3.89 2.525  1.45 1.071 70.57  15.7 196.5 15.87     0     0  5.37  0.85 1.550  1.17  1.09  1.00  0.77  0.76  0.53  0.53  0.20  0.06  0.01
 1975 169   229   224  13.4 49.58  3.96 2.525  1.46 1.061 72.29  15.7 196.5 16.29     0     0  5.45  0.86 1.550  1.19  1.10  1.01  0.78  0.77  0.54  0.54  0.20  0.07  0.01
 1975 170   230   225  15.5 51.43  4.04 2.525  1.48 1.049 73.96  15.7 196.5 16.78     0     0  5.51  0.86 1.550  1.20  1.11  1.02  0.79  0.78  0.55  0.54  0.20  0.07  0.02
 1975 171   231   226  16.8 54.79  4.12 2.525  1.49 1.039 75.89  15.7 196.5 17.31     0     0  5.61  0.88 1.550  1.21  1.13  1.03  0.80  0.79  0.56  0.55  0.21  0.07  0.02
 1975 172   232   227  17.5 58.30  4.21 2.525  1.50 1.028 77.99  15.7 196.5 17.88     0     0  5.71  0.89 1.550  1.22  1.14  1.05  0.80  0.80  0.56  0.56  0.21  0.07  0.02
 1975 173   233   228  16.0 63.73  4.29 2.525  1.51 1.018 80.19  15.7 196.5 18.40     0     0  5.84  0.91 1.550  1.24  1.15  1.06  0.81  0.80  0.57  0.56  0.21  0.07  0.02
 1975 174   234   229  13.8 70.09  4.36 2.525  1.52 1.010 82.18  15.7 196.5 18.85     0     0  5.91  0.93 1.550  1.24  1.15  1.06  0.82  0.81  0.57  0.57  0.21  0.07  0.02
 1975 175   235   230  17.3 71.42  4.44 2.525  1.53 1.000 83.90  15.7 196.5 19.43 18207 .0000  6.08  0.94 1.550  1.25  1.16  1.07  0.82  0.81  0.57  0.57  0.21  0.07  0.02
 1975 176   236   231  14.4 72.53  4.51 2.525  1.53     1 86.06  15.7 196.5 19.90 18207 .0002  6.29  0.96 1.550  1.25  1.17  1.07  0.83  0.82  0.58  0.57  0.21  0.07  0.02
 1975 177   237   232  15.7 73.73  4.59 2.525  1.54 0.982 87.86  15.7 196.5 20.43 18207 .0006  6.47  0.97 1.550  1.26  1.17  1.07  0.83  0.82  0.58  0.57  0.21  0.07  0.02
 1975 178   238   233  14.1 74.82  4.66 2.525  1.55 0.974 89.82  15.7 196.5 20.91 18207 .0011  6.61  0.98 1.550  1.26  1.17  1.08  0.83  0.82  0.58  0.57  0.21  0.07  0.02
 1975 179   239   234  11.5 75.71  4.72 2.525  1.56 0.968 91.59  15.7 196.5 21.30 18207 .0015  6.69  0.98 1.550  1.26  1.17  1.08  0.83  0.82  0.58  0.57  0.21  0.07  0.02
 1975 180   240   235  12.2 76.65  4.78 2.525  1.56 0.961 93.03  15.7 196.5 21.71 18207 .0020  6.79  0.98 1.550  1.26  1.17  1.08  0.83  0.82  0.58  0.58  0.21  0.07  0.02
 1975 181   241   236  14.2 77.74  4.85 2.525  1.57 0.953 94.55  15.7 196.5 22.19 18207 .0029  6.89  0.98 1.550  1.26  1.17  1.08  0.83  0.82  0.58  0.58  0.22  0.07  0.02
 1975 182   242   237  14.9 78.88  4.93 2.525  1.60 0.925 96.33  15.7 196.5 22.69 18207 .0040  6.98  0.98 1.550  1.26  1.17  1.08  0.83  0.82  0.58  0.58  0.22  0.07  0.02
 1975 183   243   238  15.6 80.02  5.00 2.525  1.63 0.898 98.18  15.7 196.5 23.21 18207 .0054  7.06  0.98 1.550  1.26  1.17  1.08  0.83  0.82  0.58  0.58  0.22  0.07  0.02
 1975 184   244   239  14.9 80.30  5.03 2.525  1.65 0.877 100.0  15.7 196.5 23.71 18207 .0062  7.11  0.98 1.550  1.26  1.17  1.08  0.83  0.82  0.58  0.58  0.22  0.07  0.02
 1975 185   245   240  16.8 80.62  5.06 2.525  1.67 0.857 100.0  15.7 196.5 24.28 18207 .0066  7.14  0.98 1.550  1.26  1.17  1.08  0.83  0.82  0.58  0.58  0.22  0.07  0.02
 1975 186   246   241  14.1 80.88  5.09 2.525  1.69 0.837 100.0  15.7 196.5 24.76 18207 .0069  7.16  0.98 1.550  1.26  1.17  1.08  0.83  0.82  0.58  0.58  0.22  0.07  0.02
 1975 187   247   242  16.3 81.19  5.12 2.525  1.71 0.817 100.0  15.7 196.5 25.31 18207 .0072  7.20  0.98 1.550  1.26  1.17  1.08  0.83  0.82  0.58  0.58  0.21  0.07  0.02
 1975 188   248   243  17.0 81.52  5.15 2.525  1.73 0.798 100.0  15.7 196.5 25.88 18207 .0075  7.22  0.98 1.550  1.26  1.17  1.08  0.83  0.82  0.58  0.57  0.21  0.07  0.02
 1975 189   249   244  18.1 81.86  5.19 2.525  1.75 0.778 100.0  15.7 196.5 26.49 18207 .0077  7.24  0.98 1.550  1.26  1.17  1.07  0.83  0.82  0.58  0.57  0.21  0.07  0.02
 1975 190   250   245  17.5 82.19  5.22 2.525  1.77 0.760 100.0  15.7 196.5 27.08 18207 .0079  7.26  0.98 1.550  1.26  1.17  1.07  0.83  0.82  0.58  0.57  0.21  0.07  0.02
 1975 191   251   246  17.7 82.52  5.25 2.525  1.78 0.741 100.0  15.7 196.5 27.68 18207 .0081  7.27  0.98 1.550  1.25  1.17  1.07  0.83  0.82  0.58  0.57  0.21  0.07  0.02
 1975 192   252   247  18.2 82.86  5.29 2.525  1.80 0.723 100.0  15.7 196.5 28.29 18207 .0083  7.28  0.98 1.550  1.25  1.17  1.07  0.83  0.82  0.58  0.57  0.21  0.07  0.02
 1975 193   253   248  15.3 83.15  5.32 2.525  1.82 0.706 100.0  15.7 196.5 28.80 18207 .0085  7.29  0.98 1.550  1.25  1.17  1.07  0.83  0.82  0.58  0.57  0.21  0.07  0.02
 1975 194   254   249  19.0 83.51  5.35 2.525  1.84 0.689 100.0  15.7 196.5 29.44 18207 .0086  7.30  0.98 1.550  1.25  1.17  1.07  0.82  0.82  0.58  0.57  0.21  0.07  0.02
 1975 195   255   250  20.2 83.89  5.39 2.525  1.85 0.671 100.0  15.7 196.5 30.12 18207 .0088  7.32  0.98 1.550  1.25  1.16  1.07  0.82  0.81  0.58  0.57  0.21  0.07  0.02
 1975 196   256   251  17.6 84.23  5.42 2.525  1.87 0.655 100.0  15.7 196.5 30.71 18207 .0089  7.32  0.98 1.550  1.25  1.16  1.07  0.82  0.81  0.58  0.57  0.21  0.07  0.02
 1975 197   257   252  17.8 84.56  5.46 2.525  1.89 0.639 100.0  15.7 196.5 31.31 18207 .0090  7.33  0.98 1.550  1.25  1.16  1.07  0.82  0.81  0.57  0.57  0.21  0.07  0.02
 1975 198   258   253  18.5 84.91  5.49 2.525  1.90 0.623 100.0  15.7 196.5 31.92 18207 .0092  7.34  0.98 1.550  1.25  1.16  1.07  0.82  0.81  0.57  0.57  0.21  0.07  0.02
 1975 199   259   254  16.8 85.23  5.52 2.525  1.92 0.607 100.0  15.7 196.5 32.48 18207 .0093  7.35  0.98 1.550  1.25  1.16  1.07  0.82  0.81  0.57  0.57  0.21  0.07  0.02
 1975 200   260   255  16.2 85.54  5.55 2.525  1.93 0.592 100.0  15.7 196.5 33.02 18207 .0094  7.36  0.98 1.550  1.24  1.16  1.07  0.82  0.81  0.57  0.57  0.21  0.07  0.02
 1975 201   261   256  17.9 85.87  5.59 2.525  1.95 0.577 100.0  15.7 196.5 33.62 18207 .0096  7.36  0.98 1.550  1.24  1.16  1.06  0.82  0.81  0.57  0.57  0.21  0.07  0.02
 1975 202   262   257  15.8 86.17  5.62 2.525  1.96 0.563 100.0  15.7 196.5 34.15 18207 .0097  7.37  0.98 1.550  1.24  1.16  1.06  0.82  0.81  0.57  0.57  0.21  0.07  0.02
 1975 203   263   258  17.0 86.49  5.65 2.525  1.98 0.549 100.0  15.7 196.5 34.71 18207 .0098  7.38  0.98 1.550  1.24  1.16  1.06  0.82  0.81  0.57  0.57  0.21  0.07  0.02
 1975 204   264   259  17.2 86.82  5.68 2.525  1.99 0.535 100.0  15.7 196.5 35.28 18207 .0099  7.38  0.98 1.550  1.24  1.16  1.06  0.82  0.81  0.57  0.57  0.21  0.07  0.02
 1975 205   265   260  13.4 87.07  5.71 2.525  2.00 0.522 100.0  15.7 196.5 35.73 18207 .0100  7.39  0.98 1.550  1.24  1.16  1.06  0.82  0.81  0.57  0.57  0.21  0.07  0.02
 1975 206   266   261  13.9 87.33  5.73 2.525  2.04 0.490 100.0  15.7 196.5 36.19 18207 .0101  7.39  0.98 1.550  1.24  1.15  1.06  0.82  0.81  0.57  0.57  0.21  0.07  0.02
 1975 207   267   262  18.0 87.67  5.77 2.525  2.07 0.457 100.0  15.7 196.5 36.79 18207 .0102  7.40  0.98 1.550  1.24  1.15  1.06  0.82  0.81  0.57  0.57  0.21  0.07  0.02
 1975 208   268   263  19.2 88.04  5.80 2.525  2.11 0.418 100.0  15.7 196.5 37.43 18207 .0103  7.41  0.98 1.550  1.24  1.15  1.06  0.81  0.81  0.57  0.57  0.21  0.07  0.02
 1975 209   269   264  20.5 88.42  5.84 2.525  2.15 0.378 100.0  15.7 196.5 38.11 18207 .0104  7.42  0.98 1.550  1.24  1.15  1.06  0.81  0.81  0.57  0.56  0.21  0.07  0.02
 1975 210   270   265  20.9 88.82  5.88 2.525  2.19 0.337 100.0  15.7 196.5 38.80 18207 .0105  7.42  0.98 1.550  1.23  1.15  1.06  0.81  0.80  0.57  0.56  0.21  0.07  0.02
 1975 211   271   266  21.2 89.22  5.92 2.525  2.23 0.296 100.0  15.7 196.5 39.50 18207 .0106  7.43  0.98 1.550  1.23  1.15  1.05  0.81  0.80  0.57  0.56  0.21  0.07  0.02
 1975 212   272   267  20.2 89.60  5.96 2.525  2.27 0.255 100.0  15.7 196.5 40.17 18207 .0107  7.44  0.98 1.550  1.23  1.15  1.05  0.81  0.80  0.57  0.56  0.21  0.07  0.02
 1975 213   273   268  20.2 89.98  6.00 2.525  2.31 0.217 100.0  15.7 196.5 40.83 18207 .0108  7.45  0.98 1.550  1.23  1.15  1.05  0.81  0.80  0.57  0.56  0.21  0.07  0.02
 1975 214   274   269  19.3 90.91  6.09 2.525  2.35 0.179 100.0  15.7 196.5 41.47 18207 .0109  7.45  0.98 1.550  1.23  1.15  1.05  0.81  0.80  0.57  0.56  0.21  0.07  0.02

*DSSAT Cropping System Model Ver. 4.8.2.010 -develop  JUL 08, 2024 16:11:18

*RUN   2        : 30 KG N/HA                CSCER048 RORO7401    2
 MODEL          : CSCER048 - Wheat
 EXPERIMENT     : RORO7401 WH N RESPONSE,ROTHAMSTED  8FE(N)  (DSSAT3)
 DATA PATH      : C:\DSSAT48\Wheat\
 TREATMENT  2   : 30 KG N/HA                CSCER048
  
@YEAR DOY   DAS   DAP TMEAN  GSTD  RSTD LAIPD LAISD  LAID  CHTD SDWAD SNWLD SNWSD  H#AD  HWUD SHRTD  PTFD  RDPD  RL1D  RL2D  RL3D  RL4D  RL5D  RL6D  RL7D  RL8D  RL9D RL10D
 1974 310     5     0   5.5     0  1.01     0  0.00     0     0  78.7     0     0     0     0  0.00  0.98 0.040  0.00  0.00  0.00  0.00  0.00  0.00  0.00  0.00  0.00  0.00
 1974 311     6     1   7.6 3.300  1.02     0  0.00     0     0  78.7     0     0     0     0  0.00  0.98 0.040  0.00  0.00  0.00  0.00  0.00  0.00  0.00  0.00  0.00  0.00
 1974 312     7     2   9.0 5.727  1.03     0  0.00     0     0  78.7     0     0     0     0  0.00  0.98 0.040  0.00  0.00  0.00  0.00  0.00  0.00  0.00  0.00  0.00  0.00
 1974 313     8     3   9.9 7.117  1.04     0  0.00     0     0  77.9     0     0     0     0  0.00  0.98 0.055  0.01  0.00  0.00  0.00  0.00  0.00  0.00  0.00  0.00  0.00
 1974 314     9     4   7.5 8.125  1.05     0  0.00     0     0  77.3     0 .0003     0     0  0.00  0.98 0.066  0.02  0.00  0.00  0.00  0.00  0.00  0.00  0.00  0.00  0.00
 1974 315    10     5   7.3 9.117  1.06     0  0.00     0     0  76.8     0 .0008     0     0  0.00  0.98 0.077  0.03  0.00  0.00  0.00  0.00  0.00  0.00  0.00  0.00  0.00
 1974 316    11     6   5.0 9.742  1.07     0  0.00     0     0  76.4     0 .0012     0     0  0.00  0.98 0.085  0.03  0.01  0.00  0.00  0.00  0.00  0.00  0.00  0.00  0.00
 1974 317    12     7   6.0 10.00  1.08     0  0.00     0     0  75.9     0 .0019     0     0  0.00  0.98 0.094  0.04  0.01  0.00  0.00  0.00  0.00  0.00  0.00  0.00  0.00
 1974 318    13     8   9.0 10.18  1.08 .0090  0.00 .0090 0.500  72.5     0 .0032     0     0  0.81  0.75 0.107  0.04  0.01  0.00  0.00  0.00  0.00  0.00  0.00  0.00  0.00
 1974 319    14     9   8.2 10.34  1.08 .0164  0.00 .0164 1.963  69.6     0 .0046     0     0  1.33  0.75 0.119  0.04  0.02  0.00  0.00  0.00  0.00  0.00  0.00  0.00  0.00
 1974 320    15    10   7.1 10.49  1.08 .0220  0.00 .0220 2.012  67.4     0 .0060     0     0  1.66  0.75 0.129  0.05  0.02  0.00  0.00  0.00  0.00  0.00  0.00  0.00  0.00
 1974 321    16    11   5.6 10.60  1.08 .0255  0.00 .0255 2.052  66.0     0 .0073     0     0  1.85  0.75 0.138  0.05  0.02  0.00  0.00  0.00  0.00  0.00  0.00  0.00  0.00
 1974 322    17    12   4.8 10.70  1.08 .0281  0.00 .0281 2.084  64.9     0 .0085     0     0  1.91  0.75 0.145  0.05  0.03  0.00  0.00  0.00  0.00  0.00  0.00  0.00  0.00
 1974 323    18    13   4.4 10.78  1.09 .0302  0.00 .0302 2.110  64.1     0 .0097     0     0  2.09  0.75 0.151  0.06  0.03  0.00  0.00  0.00  0.00  0.00  0.00  0.00  0.00
 1974 324    19    14   4.0 10.86  1.09 .0321  0.00 .0321 2.133  63.2     0 .0108     0     0  2.09  0.75 0.157  0.06  0.03  0.00  0.00  0.00  0.00  0.00  0.00  0.00  0.00
 1974 325    20    15   7.0 11.01  1.09 .0375  0.00 .0375 2.154  61.1     0 .0129     0     0  2.24  0.75 0.167  0.06  0.03  0.00  0.00  0.00  0.00  0.00  0.00  0.00  0.00
 1974 326    21    16   7.9 11.16  1.09 .0451  0.00 .0451 2.188  58.2     0 .0154     0     0  2.44  0.75 0.178  0.06  0.04  0.00  0.00  0.00  0.00  0.00  0.00  0.00  0.00
 1974 327    22    17   8.2 11.33  1.09 .0534  0.00 .0534 2.226  55.1     0 .0183     0     0  2.69  0.75 0.190  0.07  0.04  0.00  0.00  0.00  0.00  0.00  0.00  0.00  0.00
 1974 328    23    18   5.4 11.43  1.09 .0569  0.00 .0569 2.264  53.6     0 .0204     0     0  2.75  0.75 0.198  0.07  0.04  0.00  0.00  0.00  0.00  0.00  0.00  0.00  0.00
 1974 329    24    19   5.6 11.55  1.09 .0606  0.00 .0606 2.288  52.4     0 .0226     0     0  2.98  0.75 0.205  0.07  0.04  0.00  0.00  0.00  0.00  0.00  0.00  0.00  0.00
 1974 330    25    20   5.0 11.65  1.09 .0637  0.00 .0637 2.311  51.3     0 .0247     0     0  3.09  0.75 0.213  0.07  0.04  0.01  0.00  0.00  0.00  0.00  0.00  0.00  0.00
 1974 331    26    21   4.6 11.74  1.09 .0662  0.00 .0662 2.332  50.2     0 .0267     0     0  3.11  0.75 0.219  0.07  0.05  0.01  0.00  0.00  0.00  0.00  0.00  0.00  0.00
 1974 332    27    22   5.3 11.84  1.09 .0696  0.00 .0696 2.349  48.9     0 .0291     0     0  3.21  0.75 0.227  0.08  0.05  0.01  0.00  0.00  0.00  0.00  0.00  0.00  0.00
 1974 333    28    23   6.9 11.98  1.10 .0754  0.00 .0754 2.369  46.9     0 .0324     0     0  3.37  0.75 0.236  0.08  0.05  0.01  0.00  0.00  0.00  0.00  0.00  0.00  0.00
 1974 334    29    24   7.8 12.07  1.10 .0799  0.00 .0799 2.394  45.0     0 .0363     0     0  3.40  0.75 0.247  0.08  0.05  0.01  0.00  0.00  0.00  0.00  0.00  0.00  0.00
 1974 335    30    25   8.7 12.15  1.10 .0849  0.00 .0849 2.421  42.9     0 .0408     0     0  3.42  0.75 0.260  0.08  0.05  0.01  0.00  0.00  0.00  0.00  0.00  0.00  0.00
 1974 336    31    26  11.0 12.26  1.10 .0923  0.00 .0923 2.449  39.9     0 .0470     0     0  3.48  0.75 0.274  0.09  0.06  0.02  0.00  0.00  0.00  0.00  0.00  0.00  0.00
 1974 337    32    27  11.1 12.38  1.10 0.100  0.00 0.100 2.483  36.9     0 .0535     0     0  3.53  0.75 0.287  0.09  0.06  0.02  0.00  0.00  0.00  0.00  0.00  0.00  0.00
 1974 338    33    28  10.0 12.48  1.10 0.106  0.00 0.106 2.515  34.5     0 .0598     0     0  3.67  0.76 0.300  0.09  0.06  0.02  0.00  0.00  0.00  0.00  0.00  0.00  0.00
 1974 339    34    29   6.2 12.54  1.10 0.109  0.00 0.109 2.542  33.7     0 .0639     0     0  3.77  0.75 0.308  0.09  0.06  0.02  0.00  0.00  0.00  0.00  0.00  0.00  0.00
 1974 340    35    30   8.1 12.62  1.10 0.113  0.00 0.113 2.559  32.1     0 .0695     0     0  3.85  0.75 0.318  0.09  0.06  0.02  0.00  0.00  0.00  0.00  0.00  0.00  0.00
 1974 341    36    31   9.4 12.71  1.10 0.119  0.00 0.119 2.579  29.9     0 .0761     0     0  3.92  0.75 0.330  0.10  0.07  0.02  0.01  0.00  0.00  0.00  0.00  0.00  0.00
 1974 342    37    32   9.8 12.81  1.10 0.125  0.00 0.125 2.600  27.4     0 .0834     0     0  3.91  0.75 0.342  0.10  0.07  0.03  0.01  0.00  0.00  0.00  0.00  0.00  0.00
 1974 343    38    33   7.5 12.89  1.11 0.128  0.00 0.128 2.622  26.1     0 .0891     0     0  3.95  0.75 0.352  0.10  0.07  0.03  0.01  0.00  0.00  0.00  0.00  0.00  0.00
 1974 344    39    34   3.3 12.92  1.11 0.129  0.00 0.129 2.637  25.9     0 .0917     0     0  3.97  0.74 0.356  0.10  0.07  0.03  0.01  0.00  0.00  0.00  0.00  0.00  0.00
 1974 345    40    35   2.2 12.94  1.11 0.129  0.00 0.129 2.643  25.8     0 .0935     0     0  3.99  0.75 0.358  0.10  0.07  0.03  0.01  0.00  0.00  0.00  0.00  0.00  0.00
 1974 346    41    36   4.5 12.99  1.11 0.131  0.00 0.131 2.647  25.1     0 .0972     0     0  3.96  0.75 0.364  0.10  0.07  0.03  0.01  0.00  0.00  0.00  0.00  0.00  0.00
 1974 347    42    37   3.6 13.02  1.11 0.131  0.00 0.131 2.655  24.8     0 0.100     0     0  4.00  0.75 0.369  0.10  0.07  0.03  0.01  0.00  0.00  0.00  0.00  0.00  0.00
 1974 348    43    38   4.5 13.07  1.11 0.133  0.00 0.133 2.661  24.4     0 0.104     0     0  4.05  0.75 0.374  0.10  0.07  0.03  0.01  0.00  0.00  0.00  0.00  0.00  0.00
 1974 349    44    39   4.9 13.12  1.11 0.134  0.00 0.134 2.668  23.8     0 0.108     0     0  4.11  0.75 0.380  0.10  0.07  0.03  0.01  0.00  0.00  0.00  0.00  0.00  0.00
 1974 350    45    40   6.3 13.18  1.11 0.137  0.00 0.137 2.675  22.6     0 0.114     0     0  4.08  0.75 0.388  0.11  0.07  0.03  0.02  0.00  0.00  0.00  0.00  0.00  0.00
 1974 351    46    41   4.8 13.23  1.11 0.139  0.00 0.139 2.684  22.1     0 0.118     0     0  4.13  0.75 0.394  0.11  0.08  0.04  0.02  0.00  0.00  0.00  0.00  0.00  0.00
 1974 352    47    42   5.6 13.28  1.11 0.141  0.00 0.141 2.690  21.3     0 0.124     0     0  4.19  0.75 0.401  0.11  0.08  0.04  0.02  0.00  0.00  0.00  0.00  0.00  0.00
 1974 353    48    43   6.5 13.35  1.11 0.144  0.00 0.144 2.697  20.2     0 0.130     0     0  4.19  0.75 0.410  0.11  0.08  0.04  0.02  0.00  0.00  0.00  0.00  0.00  0.00
 1974 354    49    44   9.4 13.44  1.11 0.150  0.00 0.150 2.706  18.9     0 0.139     0     0  4.20  0.75 0.421  0.11  0.08  0.04  0.02  0.00  0.00  0.00  0.00  0.00  0.00
 1974 355    50    45   9.4 13.54  1.11 0.156  0.00 0.156 2.717  17.6     0 0.149     0     0  4.13  0.75 0.433  0.11  0.08  0.04  0.02  0.01  0.00  0.00  0.00  0.00  0.00
 1974 356    51    46  10.0 13.64  1.11 0.162  0.00 0.162 2.729  16.8     0 0.159     0     0  4.10  0.74 0.446  0.11  0.08  0.04  0.02  0.01  0.00  0.00  0.00  0.00  0.00
 1974 357    52    47  10.2 13.74  1.11 0.169  0.00 0.169 2.741  16.4     0 0.170     0     0  4.11  0.74 0.459  0.11  0.08  0.04  0.02  0.01  0.00  0.00  0.00  0.00  0.00
 1974 358    53    48   7.6 13.82  1.11 0.172  0.00 0.172 2.754  16.3     0 0.178     0     0  4.13  0.74 0.467  0.12  0.08  0.04  0.02  0.01  0.00  0.00  0.00  0.00  0.00
 1974 359    54    49   6.9 13.89  1.11 0.175  0.00 0.175 2.764  16.0     0 0.186     0     0  4.09  0.74 0.474  0.12  0.09  0.04  0.02  0.01  0.00  0.00  0.00  0.00  0.00
 1974 360    55    50   7.9 13.96  1.11 0.179  0.00 0.179 2.773  15.8     0 0.195     0     0  4.09  0.74 0.483  0.12  0.09  0.04  0.03  0.01  0.00  0.00  0.00  0.00  0.00
 1974 361    56    51   9.8 14.06  1.11 0.186  0.00 0.186 2.784  15.8     0 0.206     0     0  4.10  0.74 0.493  0.12  0.09  0.05  0.03  0.01  0.00  0.00  0.00  0.00  0.00
 1974 362    57    52  10.5 14.17  1.11 0.193  0.00 0.189 2.798  15.7 0.623 0.219     0     0  4.09  0.74 0.504  0.12  0.09  0.05  0.03  0.01  0.00  0.00  0.00  0.00  0.00
 1974 363    58    53  10.4 14.27  1.11 0.200  0.01 0.192 2.814  15.7 1.242 0.231     0     0  4.07  0.74 0.515  0.12  0.09  0.05  0.03  0.02  0.00  0.00  0.00  0.00  0.00
 1974 364    59    54   4.1 14.31  1.11 0.201  0.01 0.191 2.831  15.7 1.486 0.236     0     0  4.08  0.74 0.519  0.12  0.09  0.05  0.03  0.02  0.00  0.00  0.00  0.00  0.00
 1974 365    60    55   5.0 14.36  1.11 0.202  0.01 0.191 2.838  15.7 1.784 0.243     0     0  4.08  0.74 0.525  0.12  0.09  0.05  0.03  0.02  0.00  0.00  0.00  0.00  0.00
 1975   1    61    56   6.0 14.42  1.11 0.205  0.01 0.191 2.847  15.7 2.142 0.250     0     0  4.07  0.74 0.531  0.12  0.09  0.05  0.03  0.02  0.00  0.00  0.00  0.00  0.00
 1975   2    62    57   7.5 14.50  1.12 0.209  0.02 0.192 2.859  15.7 2.589 0.260     0     0  4.06  0.74 0.539  0.12  0.09  0.05  0.03  0.02  0.00  0.00  0.00  0.00  0.00
 1975   3    63    58   7.2 14.57  1.12 0.212  0.02 0.193 2.876  15.7 3.022 0.269     0     0  4.06  0.74 0.547  0.12  0.09  0.05  0.03  0.02  0.00  0.00  0.00  0.00  0.00
 1975   4    64    59   4.0 14.61  1.12 0.213  0.02 0.193 2.894  15.7 3.261 0.275     0     0  4.06  0.74 0.551  0.12  0.09  0.05  0.03  0.02  0.01  0.00  0.00  0.00  0.00
 1975   5    65    60   5.1 14.66  1.12 0.215  0.02 0.193 2.904  15.7 3.569 0.281     0     0  4.06  0.74 0.556  0.12  0.09  0.05  0.03  0.02  0.01  0.00  0.00  0.00  0.00
 1975   6    66    61   8.4 14.75  1.12 0.221  0.03 0.195 2.919  15.7 4.075 0.293     0     0  4.05  0.74 0.565  0.12  0.09  0.05  0.03  0.02  0.01  0.00  0.00  0.00  0.00
 1975   7    67    62   6.7 14.81  1.12 0.224  0.03 0.196 2.945  15.7 4.473 0.302     0     0  4.05  0.75 0.572  0.13  0.09  0.05  0.03  0.02  0.01  0.00  0.00  0.00  0.00
 1975   8    68    63   6.9 14.88  1.12 0.228  0.03 0.197 2.967  15.7 4.886 0.312     0     0  4.05  0.75 0.580  0.13  0.10  0.05  0.03  0.02  0.01  0.00  0.00  0.00  0.00
 1975   9    69    64   7.2 14.95  1.12 0.232  0.03 0.199 2.992  15.7 5.318 0.322     0     0  4.04  0.75 0.587  0.13  0.10  0.05  0.03  0.02  0.01  0.00  0.00  0.00  0.00
 1975  10    70    65   8.1 15.03  1.12 0.238  0.04 0.202 3.019  15.7 5.804 0.333     0     0  4.02  0.75 0.596  0.13  0.10  0.05  0.03  0.02  0.01  0.00  0.00  0.00  0.00
 1975  11    71    66   8.9 15.12  1.12 0.245  0.04 0.206 3.052  15.7 6.361 0.345     0     0  4.01  0.75 0.605  0.13  0.10  0.05  0.03  0.02  0.01  0.00  0.00  0.00  0.00
 1975  12    72    67   7.9 15.20  1.13 0.251  0.04 0.209 3.091  15.7 6.856 0.357     0     0  4.00  0.75 0.614  0.13  0.10  0.05  0.03  0.02  0.01  0.00  0.00  0.00  0.00
 1975  13    73    68   5.6 15.26  1.13 0.255  0.04 0.210 3.128  15.7 7.210 0.365     0     0  4.01  0.75 0.620  0.13  0.10  0.06  0.03  0.02  0.01  0.00  0.00  0.00  0.00
 1975  14    74    69   7.8 15.34  1.13 0.261  0.05 0.213 3.156  15.7 7.706 0.376     0     0  4.01  0.75 0.628  0.13  0.10  0.06  0.03  0.02  0.01  0.00  0.00  0.00  0.00
 1975  15    75    70   8.4 15.42  1.13 0.269  0.05 0.217 3.197  15.7 8.238 0.388     0     0  4.02  0.75 0.637  0.13  0.10  0.06  0.04  0.03  0.01  0.00  0.00  0.00  0.00
 1975  16    76    71   4.8 15.47  1.13 0.271  0.05 0.218 3.244  15.7 8.543 0.396     0     0  4.03  0.75 0.642  0.13  0.10  0.06  0.04  0.03  0.01  0.00  0.00  0.00  0.00
 1975  17    77    72   4.8 15.51  1.13 0.274  0.06 0.218 3.273  15.7 8.845 0.403     0     0  4.04  0.75 0.647  0.13  0.10  0.06  0.04  0.03  0.01  0.01  0.00  0.00  0.00
 1975  18    78    73   2.5 15.54  1.13 0.274  0.06 0.218 3.302  15.7 9.000 0.407     0     0  4.04  0.75 0.650  0.13  0.10  0.06  0.04  0.03  0.01  0.01  0.00  0.00  0.00
 1975  19    79    74   3.5 15.57  1.13 0.276  0.06 0.218 3.319  15.7 9.226 0.413     0     0  4.06  0.75 0.653  0.13  0.10  0.06  0.04  0.03  0.01  0.01  0.00  0.00  0.00
 1975  20    80    75   3.9 15.61  1.13 0.277  0.06 0.218 3.344  15.7 9.474 0.419     0     0  4.06  0.75 0.657  0.13  0.10  0.06  0.04  0.03  0.01  0.01  0.00  0.00  0.00
 1975  21    81    76   5.1 15.66  1.14 0.280  0.06 0.220 3.372  15.7 9.795 0.427     0     0  4.09  0.75 0.661  0.14  0.11  0.06  0.04  0.03  0.02  0.01  0.00  0.00  0.00
 1975  22    82    77   6.4 15.73  1.14 0.285  0.06 0.222 3.411  15.7 10.21 0.438     0     0  4.08  0.75 0.666  0.14  0.11  0.06  0.04  0.03  0.02  0.01  0.00  0.00  0.00
 1975  23    83    78   4.9 15.78  1.14 0.288  0.07 0.223 3.464  15.7 10.51 0.446     0     0  4.09  0.75 0.670  0.14  0.11  0.06  0.04  0.03  0.02  0.01  0.00  0.00  0.00
 1975  24    84    79   6.5 15.84  1.14 0.293  0.07 0.226 3.505  15.7 10.93 0.458     0     0  4.11  0.75 0.675  0.14  0.11  0.07  0.04  0.03  0.02  0.01  0.00  0.00  0.00
 1975  25    85    80   7.8 15.92  1.15 0.301  0.07 0.230 3.564  15.7 11.43 0.472     0     0  4.12  0.75 0.682  0.14  0.11  0.07  0.04  0.03  0.02  0.01  0.00  0.00  0.00
 1975  26    86    81   4.7 15.97  1.15 0.304  0.07 0.231 3.637  15.7 11.73 0.480     0     0  4.14  0.75 0.686  0.14  0.11  0.07  0.05  0.04  0.02  0.01  0.00  0.00  0.00
 1975  27    87    82   4.2 16.01  1.15 0.306  0.07 0.232 3.683  15.7 11.99 0.488     0     0  4.14  0.75 0.689  0.14  0.11  0.07  0.05  0.04  0.02  0.01  0.00  0.00  0.00
 1975  28    88    83   4.1 16.05  1.15 0.309  0.08 0.232 3.725  15.7 12.36 0.496     0     0  4.13  0.75 0.692  0.14  0.11  0.07  0.05  0.04  0.02  0.01  0.00  0.00  0.00
 1975  29    89    84   5.7 16.11  1.15 0.313  0.08 0.234 3.769  15.7 12.86 0.507     0     0  4.13  0.75 0.697  0.15  0.11  0.07  0.05  0.04  0.02  0.01  0.00  0.00  0.00
 1975  30    90    85   7.8 16.18  1.16 0.322  0.08 0.238 3.831  15.7 13.57 0.522     0     0  4.13  0.75 0.703  0.15  0.11  0.07  0.05  0.04  0.02  0.02  0.00  0.00  0.00
 1975  31    91    86   9.5 16.28  1.16 0.336  0.09 0.247 3.922  15.7 14.42 0.540     0     0  4.13  0.75 0.711  0.15  0.12  0.07  0.05  0.04  0.02  0.02  0.00  0.00  0.00
 1975  32    92    87   6.8 16.35  1.16 0.343  0.09 0.250 4.036  15.7 15.03 0.554     0     0  4.13  0.75 0.717  0.15  0.12  0.07  0.05  0.04  0.02  0.02  0.00  0.00  0.00
 1975  33    93    88   4.5 16.39  1.17 0.346  0.10 0.250 4.121  15.7 15.44 0.563     0     0  4.14  0.75 0.721  0.15  0.12  0.08  0.05  0.04  0.02  0.02  0.00  0.00  0.00
 1975  34    94    89   4.8 16.44  1.17 0.349  0.10 0.251 4.180  15.7 15.87 0.573     0     0  4.14  0.75 0.724  0.15  0.12  0.08  0.05  0.04  0.02  0.02  0.00  0.00  0.00
 1975  35    95    90   3.5 16.48  1.17 0.351  0.10 0.251 4.243  15.7 16.18 0.580     0     0  4.13  0.75 0.727  0.15  0.12  0.08  0.05  0.04  0.02  0.02  0.00  0.00  0.00
 1975  36    96    91   3.5 16.51  1.17 0.353  0.10 0.251 4.291  15.7 16.49 0.587     0     0  4.14  0.75 0.730  0.15  0.12  0.08  0.05  0.04  0.02  0.02  0.00  0.00  0.00
 1975  37    97    92   2.5 16.53  1.18 0.354  0.10 0.251 4.341  15.7 16.72 0.592     0     0  4.15  0.75 0.732  0.15  0.12  0.08  0.05  0.04  0.02  0.02  0.00  0.00  0.00
 1975  38    98    93   4.9 16.58  1.18 0.358  0.11 0.252 4.378  15.7 17.16 0.603     0     0  4.17  0.75 0.736  0.16  0.12  0.08  0.05  0.04  0.03  0.02  0.00  0.00  0.00
 1975  39    99    94   3.6 16.62  1.18 0.360  0.11 0.252 4.453  15.7 17.49 0.611     0     0  4.18  0.75 0.739  0.16  0.13  0.08  0.06  0.05  0.03  0.02  0.00  0.00  0.00
 1975  40   100    95   2.6 16.65  1.18 0.361  0.11 0.252 4.510  15.7 17.73 0.617     0     0  4.20  0.75 0.741  0.16  0.13  0.09  0.06  0.05  0.03  0.02  0.00  0.00  0.00
 1975  41   101    96   2.9 16.68  1.18 0.362  0.11 0.252 4.553  15.7 17.99 0.623     0     0  4.20  0.75 0.744  0.16  0.13  0.09  0.06  0.05  0.03  0.02  0.00  0.00  0.00
 1975  42   102    97   4.6 21.00  1.19 0.366  0.11 0.253 4.602  15.7 18.40 0.634     0     0  4.20  0.75 0.747  0.16  0.13  0.09  0.06  0.05  0.03  0.02  0.00  0.00  0.00
 1975  43   103    98   7.6 21.04  1.19 0.380  0.12 0.263 4.681  15.7 19.10 0.652     0     0  4.20  0.75 0.754  0.16  0.13  0.09  0.06  0.05  0.03  0.02  0.00  0.00  0.00
 1975  44   104    99   6.6 21.07  1.20 0.390  0.12 0.269 4.817  15.7 19.69 0.668     0     0  4.21  0.75 0.759  0.17  0.13  0.09  0.06  0.05  0.03  0.03  0.00  0.00  0.00
 1975  45   105   100   3.0 21.08  1.20 0.392  0.12 0.270 4.937  15.7 19.97 0.675     0     0  4.21  0.75 0.762  0.17  0.13  0.09  0.06  0.05  0.03  0.03  0.00  0.00  0.00
 1975  46   106   101   2.4 21.09  1.20 0.394  0.12 0.270 4.993  15.7 20.18 0.681     0     0  4.21  0.75 0.764  0.17  0.13  0.09  0.06  0.05  0.03  0.03  0.00  0.00  0.00
 1975  47   107   102   3.5 21.11  1.20 0.396  0.13 0.271 5.040  15.7 20.51 0.690     0     0  4.22  0.75 0.767  0.17  0.14  0.09  0.06  0.05  0.03  0.03  0.00  0.00  0.00
 1975  48   108   103   5.7 21.14  1.21 0.404  0.13 0.275 5.110  15.7 21.02 0.704     0     0  4.21  0.75 0.771  0.17  0.14  0.09  0.06  0.05  0.03  0.03  0.00  0.00  0.00
 1975  49   109   104   4.9 21.16  1.21 0.410  0.13 0.279 5.225  15.7 21.44 0.716     0     0  4.22  0.75 0.775  0.17  0.14  0.09  0.06  0.05  0.03  0.03  0.00  0.00  0.00
 1975  50   110   105   4.4 21.18  1.22 0.415  0.13 0.282 5.328  15.7 21.81 0.728     0     0  4.25  0.75 0.779  0.17  0.14  0.10  0.07  0.06  0.03  0.03  0.00  0.00  0.00
 1975  51   111   106   4.2 21.20  1.22 0.420  0.14 0.284 5.422  15.7 22.17 0.739     0     0  4.28  0.75 0.782  0.18  0.15  0.10  0.07  0.06  0.04  0.03  0.00  0.00  0.00
 1975  52   112   107   3.4 21.21  1.22 0.423  0.14 0.285 5.515  15.7 22.46 0.749     0     0  4.30  0.75 0.785  0.18  0.15  0.10  0.07  0.06  0.04  0.03  0.00  0.00  0.00
 1975  53   113   108   4.1 21.23  1.23 0.427  0.14 0.288 5.592  15.7 22.81 0.760     0     0  4.32  0.75 0.788  0.19  0.15  0.11  0.08  0.07  0.04  0.04  0.00  0.00  0.00
 1975  54   114   109   5.1 21.26  1.23 0.434  0.14 0.292 5.686  15.7 23.25 0.776     0     0  4.34  0.75 0.793  0.19  0.16  0.11  0.08  0.07  0.04  0.04  0.01  0.00  0.00
 1975  55   115   110   5.0 21.28  1.24 0.440  0.14 0.296 5.807  15.7 23.67 0.791     0     0  4.37  0.75 0.797  0.20  0.16  0.12  0.08  0.07  0.05  0.04  0.01  0.00  0.00
 1975  56   116   111   2.4 21.29  1.24 0.442  0.15 0.296 5.925  15.7 23.87 0.799     0     0  4.37  0.75 0.799  0.20  0.16  0.12  0.08  0.07  0.05  0.04  0.01  0.00  0.00
 1975  57   117   112   5.1 21.31  1.24 0.448  0.15 0.300 5.983  15.7 24.30 0.816     0     0  4.40  0.75 0.803  0.20  0.17  0.12  0.09  0.08  0.05  0.04  0.01  0.00  0.00
 1975  58   118   113   3.7 21.33  1.25 0.452  0.15 0.302 6.110  15.7 24.62 0.828     0     0  4.43  0.75 0.806  0.21  0.17  0.13  0.09  0.08  0.05  0.05  0.01  0.00  0.00
 1975  59   119   114   4.6 21.35  1.25 0.457  0.15 0.305 6.203  15.7 25.01 0.845     0     0  4.45  0.75 0.810  0.22  0.18  0.13  0.10  0.09  0.05  0.05  0.01  0.00  0.00
 1975  60   120   115   7.0 21.38  1.26 0.470  0.16 0.313 6.323  15.7 25.60 0.871     0     0  4.46  0.75 0.815  0.22  0.18  0.14  0.10  0.09  0.06  0.05  0.01  0.00  0.00
 1975  61   121   116   7.3 21.43  1.27 0.483  0.16 0.323 6.507  15.7 26.23 0.899     0     0  4.46  0.75 0.821  0.22  0.19  0.14  0.10  0.09  0.06  0.05  0.01  0.00  0.00
 1975  62   122   117   8.8 21.49  1.28 0.502  0.16 0.338 6.705  15.7 26.98 0.933     0     0  4.47  0.75 0.829  0.22  0.19  0.14  0.10  0.09  0.06  0.06  0.01  0.00  0.00
 1975  63   123   118   6.8 21.53  1.29 0.513  0.17 0.345 6.947  15.7 27.57 0.960     0     0  4.48  0.75 0.834  0.23  0.19  0.15  0.11  0.10  0.06  0.06  0.01  0.00  0.00
 1975  64   124   119   6.1 21.57  1.29 0.522  0.17 0.351 7.137  15.7 28.09 0.985     0     0  4.48  0.75 0.839  0.23  0.19  0.15  0.11  0.10  0.06  0.06  0.01  0.00  0.00
 1975  65   125   120   6.9 21.61  1.30 0.533  0.17 0.359 7.311  15.7 28.69 1.014     0     0  4.48  0.75 0.845  0.23  0.20  0.15  0.11  0.10  0.06  0.06  0.01  0.00  0.00
 1975  66   126   121   7.1 21.66  1.31 0.545  0.18 0.367 7.513  15.7 29.31 1.044     0     0  4.48  0.75 0.851  0.24  0.20  0.15  0.11  0.10  0.07  0.06  0.01  0.00  0.00
 1975  67   127   122   4.5 21.69  1.31 0.550  0.18 0.370 7.723  15.7 29.70 1.064     0     0  4.49  0.75 0.854  0.24  0.20  0.16  0.11  0.10  0.07  0.06  0.01  0.00  0.00
 1975  68   128   123   4.8 21.72  1.32 0.556  0.18 0.373 7.858  15.7 30.14 1.084     0     0  4.49  0.75 0.858  0.24  0.20  0.16  0.11  0.10  0.07  0.06  0.01  0.00  0.00
 1975  69   129   124   3.2 21.74  1.32 0.559  0.18 0.374 8.003  15.7 30.44 1.099     0     0  4.49  0.75 0.861  0.24  0.21  0.16  0.11  0.11  0.07  0.06  0.01  0.00  0.00
 1975  70   130   125   4.0 21.76  1.33 0.563  0.19 0.377 8.104  15.7 30.81 1.117     0     0  4.50  0.75 0.864  0.24  0.21  0.16  0.12  0.11  0.07  0.06  0.01  0.00  0.00
 1975  71   131   126   4.8 21.80  1.34 0.569  0.19 0.380 8.230  15.7 31.25 1.138     0     0  4.50  0.75 0.868  0.24  0.21  0.16  0.12  0.11  0.07  0.07  0.01  0.00  0.00
 1975  72   132   127   3.7 21.82  1.34 0.573  0.19 0.382 8.384  15.7 31.60 1.155     0     0  4.49  0.75 0.871  0.24  0.21  0.16  0.12  0.11  0.07  0.07  0.01  0.00  0.00
 1975  73   133   128   3.0 21.84  1.34 0.575  0.19 0.383 8.505  15.7 31.88 1.169     0     0  4.50  0.76 0.874  0.25  0.21  0.16  0.12  0.11  0.07  0.07  0.01  0.00  0.00
 1975  74   134   129   2.6 21.86  1.35 0.577  0.19 0.383 8.605  15.7 32.12 1.181     0     0  4.51  0.76 0.876  0.25  0.21  0.16  0.12  0.11  0.07  0.07  0.01  0.00  0.00
 1975  75   135   130   3.0 21.88  1.35 0.580  0.20 0.384 8.692  15.7 32.40 1.195     0     0  4.52  0.76 0.878  0.25  0.22  0.17  0.12  0.11  0.07  0.07  0.01  0.00  0.00
 1975  76   136   131   2.1 21.89  1.35 0.581  0.20 0.384 8.793  15.7 32.60 1.205     0     0  4.54  0.76 0.880  0.26  0.22  0.17  0.13  0.12  0.08  0.07  0.02  0.00  0.00
 1975  77   137   132   2.0 21.91  1.36 0.582  0.20 0.384 8.867  15.7 32.79 1.215     0     0  4.55  0.76 0.882  0.26  0.23  0.18  0.13  0.12  0.08  0.07  0.02  0.00  0.00
 1975  78   138   133   1.5 21.92  1.36 0.583  0.20 0.384 8.938  15.7 32.92 1.222     0     0  4.55  0.76 0.883  0.26  0.23  0.18  0.13  0.12  0.08  0.07  0.02  0.00  0.00
 1975  79   139   134   2.5 21.93  1.36 0.585  0.20 0.384 8.990  15.7 33.16 1.235     0     0  4.55  0.76 0.885  0.26  0.23  0.18  0.13  0.12  0.08  0.07  0.02  0.00  0.00
 1975  80   140   135   4.8 21.97  1.37 0.591  0.20 0.389 9.081  15.7 33.61 1.260     0     0  4.56  0.76 0.889  0.27  0.23  0.18  0.13  0.12  0.08  0.08  0.02  0.00  0.00
 1975  81   141   136   4.6 22.00  1.38 0.597  0.21 0.392 9.258  15.7 34.04 1.283     0     0  4.57  0.76 0.893  0.27  0.23  0.18  0.13  0.13  0.08  0.08  0.02  0.00  0.00
 1975  82   142   137   5.9 22.04  1.39 0.607  0.21 0.399 9.425  15.7 34.59 1.314     0     0  4.59  0.76 0.898  0.28  0.24  0.19  0.14  0.13  0.09  0.08  0.02  0.00  0.00
 1975  83   143   138   5.8 22.08  1.39 0.619  0.21 0.408 9.647  15.7 35.13 1.345     0     0  4.62  0.76 0.902  0.29  0.25  0.20  0.15  0.14  0.09  0.09  0.02  0.00  0.00
 1975  84   144   139   4.6 22.11  1.40 0.627  0.21 0.413 9.864  15.7 35.56 1.371     0     0  4.64  0.76 0.906  0.29  0.25  0.21  0.15  0.14  0.09  0.09  0.02  0.00  0.00
 1975  85   145   140   5.2 22.14  1.41 0.636  0.22 0.420 10.04  15.7 36.05 1.402     0     0  4.64  0.76 0.910  0.30  0.26  0.21  0.15  0.14  0.10  0.09  0.02  0.00  0.00
 1975  86   146   141   2.2 22.16  1.41 0.638  0.22 0.420 10.24  15.7 36.26 1.415     0     0  4.65  0.76 0.912  0.30  0.26  0.21  0.15  0.15  0.10  0.09  0.02  0.00  0.00
 1975  87   147   142   1.4 22.17  1.42 0.639  0.22 0.420 10.33  15.7 36.39 1.424     0     0  4.66  0.76 0.913  0.30  0.26  0.21  0.16  0.15  0.10  0.09  0.02  0.00  0.00
 1975  88   148   143   2.8 22.18  1.42 0.642  0.22 0.421 10.39  15.7 36.65 1.441     0     0  4.67  0.76 0.916  0.31  0.27  0.22  0.16  0.15  0.10  0.10  0.02  0.00  0.00
 1975  89   149   144   2.1 22.20  1.42 0.643  0.22 0.422 10.50  15.7 36.85 1.454     0     0  4.68  0.76 0.917  0.31  0.27  0.22  0.16  0.15  0.10  0.10  0.02  0.00  0.00
 1975  90   150   145   3.4 22.22  1.43 0.647  0.22 0.424 10.58  15.7 37.16 1.475     0     0  4.69  0.76 0.920  0.32  0.28  0.23  0.17  0.16  0.11  0.10  0.03  0.00  0.00
 1975  91   151   146   4.2 22.25  1.44 0.653  0.23 0.428 10.72  15.7 37.55 1.502     0     0  4.71  0.76 0.924  0.33  0.29  0.24  0.17  0.16  0.11  0.11  0.03  0.00  0.00
 1975  92   152   147   4.9 22.28  1.44 0.662  0.23 0.434 10.89  15.7 38.01 1.535     0     0  4.72  0.76 0.928  0.33  0.29  0.24  0.18  0.17  0.12  0.11  0.03  0.00  0.00
 1975  93   153   148   2.5 22.30  1.45 0.664  0.23 0.435 11.09  15.7 38.25 1.553     0     0  4.73  0.76 0.930  0.34  0.30  0.25  0.18  0.17  0.12  0.11  0.03  0.00  0.00
 1975  94   154   149   2.5 22.31  1.45 0.666  0.23 0.436 11.20  15.7 38.48 1.570     0     0  4.74  0.76 0.932  0.34  0.30  0.25  0.19  0.18  0.12  0.11  0.03  0.00  0.00
 1975  95   155   150   1.9 22.33  1.46 0.668  0.23 0.436 11.30  15.7 38.66 1.584     0     0  4.75  0.76 0.933  0.35  0.30  0.25  0.19  0.18  0.12  0.12  0.03  0.00  0.00
 1975  96   156   151   3.4 22.35  1.46 0.672  0.23 0.439 11.38  15.7 38.98 1.609     0     0  4.76  0.76 0.936  0.35  0.31  0.26  0.19  0.18  0.12  0.12  0.03  0.00  0.00
 1975  97   157   152   4.1 22.38  1.47 0.679  0.24 0.442 11.53  15.7 39.49 1.639     0     0  4.77  0.76 0.939  0.36  0.32  0.27  0.20  0.19  0.13  0.12  0.03  0.00  0.00
 1975  98   158   153   3.2 22.40  1.47 0.683  0.24 0.444 11.71  15.7 39.88 1.664     0     0  4.79  0.76 0.942  0.37  0.33  0.27  0.20  0.19  0.13  0.13  0.04  0.00  0.00
 1975  99   159   154   1.6 22.41  1.48 0.684  0.24 0.444 11.85  15.7 40.08 1.677     0     0  4.80  0.76 0.943  0.37  0.33  0.28  0.21  0.20  0.13  0.13  0.04  0.00  0.00
 1975 100   160   155   2.9 22.43  1.48 0.687  0.24 0.445 11.92  15.7 40.44 1.700     0     0  4.81  0.76 0.946  0.38  0.34  0.28  0.21  0.20  0.14  0.13  0.04  0.00  0.00
 1975 101   161   156   6.6 22.47  1.49 0.705  0.25 0.458 12.06  15.7 41.25 1.754     0     0  4.82  0.77 0.951  0.39  0.34  0.29  0.22  0.21  0.14  0.14  0.04  0.00  0.00
 1975 102   162   157  10.3 22.54  1.51 0.745  0.25 0.491 12.35  15.7 42.52 1.840     0     0  4.84  0.76 0.960  0.40  0.35  0.30  0.22  0.21  0.15  0.14  0.04  0.00  0.00
 1975 103   163   158   9.9 22.60  1.53 0.781  0.26 0.520 12.82  15.7 43.75 1.927     0     0  4.84  0.76 0.968  0.41  0.36  0.31  0.23  0.22  0.15  0.15  0.04  0.00  0.00
 1975 104   164   159  10.1 22.66  1.55 0.815  0.27 0.547 13.28  15.7 45.01 2.017     0     0  4.84  0.75 0.976  0.41  0.37  0.31  0.23  0.23  0.15  0.15  0.04  0.00  0.00
 1975 105   165   160   9.0 22.71  1.57 0.841  0.27 0.567 13.74  15.7 46.13 2.099     0     0  4.84  0.75 0.984  0.42  0.37  0.32  0.24  0.23  0.16  0.15  0.05  0.00  0.00
 1975 106   166   161   8.4 22.75  1.58 0.863  0.28 0.583 14.16  15.7 47.19 2.177     0     0  4.84  0.75 0.990  0.43  0.39  0.33  0.25  0.24  0.16  0.16  0.05  0.00  0.00
 1975 107   167   162   9.8 22.80  1.60 0.892  0.29 0.605 14.56  15.7 48.42 2.271     0     0  4.84  0.75 0.998  0.44  0.39  0.33  0.25  0.24  0.17  0.16  0.05  0.00  0.00
 1975 108   168   163  12.4 22.86  1.62 0.928  0.30 0.632 15.02  15.7 49.98 2.392     0     0  4.84  0.75 1.009  0.51  0.40  0.34  0.26  0.25  0.17  0.17  0.05  0.00  0.00
 1975 109   169   164  11.4 22.92  1.65 0.964  0.30 0.661 15.61  15.7 51.42 2.507     0     0  4.84  0.75 1.018  0.57  0.40  0.35  0.26  0.25  0.17  0.17  0.05  0.00  0.00
 1975 110   170   165   8.9 22.97  1.66     1  0.31 0.685 16.16  15.7 52.97 2.599     0     0  4.85  0.76 1.025  0.66  0.41  0.35  0.27  0.26  0.18  0.17  0.05  0.00  0.00
 1975 111   171   166  11.0 23.04  1.69 1.046  0.32 0.723 16.59  15.7 54.91 2.720     0     0  4.85  0.76 1.034  0.74  0.42  0.36  0.27  0.26  0.18  0.18  0.05  0.00  0.00
 1975 112   172   167  12.8 23.11  1.71 1.116  0.34 0.781 17.13  15.7 57.17 2.864     0     0  4.87  0.76 1.045  0.85  0.43  0.37  0.28  0.27  0.19  0.18  0.06  0.00  0.00
 1975 113   173   168  11.8 23.18  1.73 1.183  0.35 0.836 17.76  15.7 59.26 3.003     0     0  4.89  0.77 1.055  0.94  0.44  0.38  0.29  0.28  0.19  0.19  0.06  0.00  0.00
 1975 114   174   169  11.9 23.26  1.76 1.253  0.36 0.894 18.34  15.7 61.38 3.149     0     0  4.93  0.77 1.064  1.09  0.45  0.39  0.30  0.29  0.20  0.19  0.06  0.00  0.00
 1975 115   175   170  11.6 23.34  1.78 1.323  0.37 0.953 18.93  15.7 63.46 3.301     0     0  4.95  0.78 1.074  1.17  0.46  0.40  0.30  0.29  0.20  0.20  0.06  0.00  0.00
 1975 116   176   171  13.9 23.43  1.81 1.408  0.38 1.024 19.51  15.7 65.96 3.489     0     0  4.98  0.78 1.085  1.27  0.47  0.41  0.31  0.30  0.21  0.20  0.07  0.00  0.00
 1975 117   177   172  10.6 23.50  1.83 1.472  0.39 1.078 20.21  15.7 67.87 3.637     0     0  4.98  0.78 1.094  1.29  0.47  0.41  0.31  0.30  0.21  0.20  0.07  0.00  0.00
 1975 118   178   173  13.8 23.59  1.86 1.570  0.40 1.167 20.75  15.7 69.55 3.831     0     0  5.02  0.78 1.105  1.42  0.48  0.42  0.32  0.31  0.21  0.21  0.07  0.00  0.00
 1975 119   179   174   9.6 23.65  1.88 1.639  0.42 1.222 21.45  15.7 72.14 3.973     0     0  5.04  0.78 1.113  1.53  0.49  0.43  0.33  0.32  0.22  0.22  0.07  0.01  0.00
 1975 120   180   175   7.9 23.70  1.89 1.684  0.43 1.256 21.94  15.7 74.29 4.094     0     0  5.07  0.77 1.120  1.68  0.51  0.45  0.34  0.33  0.23  0.22  0.07  0.01  0.00
 1975 121   181   176  10.1 23.76  1.91 1.754  0.44 1.312 22.35  15.7 77.01 4.256     0     0  5.08  0.77 1.128  1.75  0.52  0.45  0.34  0.34  0.23  0.23  0.08  0.01  0.00
 1975 122   182   177  12.7 23.83  1.94 1.841  0.46 1.380 22.87  15.7 80.46 4.466     0     0  5.09  0.77 1.139  1.85  0.53  0.47  0.35  0.34  0.24  0.23  0.08  0.01  0.00
 1975 123   183   178   7.3 23.87  1.96 1.876  0.47 1.404 23.53  15.7 82.45 4.591     0     0  5.11  0.77 1.145  1.99  0.55  0.48  0.37  0.36  0.25  0.24  0.08  0.01  0.00
 1975 124   184   179   7.5 23.92  1.97 1.914  0.48 1.432 23.91  15.7 84.51 4.726     0     0  5.14  0.77 1.151  2.15  0.57  0.50  0.38  0.37  0.26  0.25  0.09  0.01  0.00
 1975 125   185   180   8.2 23.96  1.99 1.961  0.49 1.467 24.31  15.7 86.76 4.881     0     0  5.16  0.78 1.158  2.28  0.58  0.52  0.39  0.38  0.27  0.26  0.09  0.01  0.00
 1975 126   186   181   9.5 24.02  2.01 2.024  0.51 1.516 24.74  15.7 89.36 5.068     0     0  5.19  0.78 1.165  2.42  0.60  0.54  0.41  0.40  0.28  0.27  0.09  0.01  0.00
 1975 127   187   182  10.6 24.02  2.05 2.107  0.51 1.594 25.34  15.7 90.37 5.286     0     0  5.20  0.78 1.174  2.46  0.62  0.55  0.42  0.41  0.28  0.28  0.10  0.02  0.00
 1975 128   188   183  12.2 24.02  2.09 2.209  0.52 1.690 26.22  15.7 91.54 5.542     0     0  5.23  0.78 1.184  2.55  0.64  0.57  0.43  0.42  0.30  0.29  0.10  0.02  0.00
 1975 129   189   184  10.3 24.02  2.12 2.318  0.52 1.793 27.24  15.7 92.53 5.767     0     0  5.26  0.78 1.192  2.61  0.67  0.59  0.45  0.44  0.31  0.31  0.11  0.02  0.00
 1975 130   190   185  11.0 24.02  2.16 2.438  0.53 1.907 28.10  15.7 93.59 6.016     0     0  5.29  0.79 1.201  2.64  0.70  0.62  0.48  0.47  0.33  0.32  0.11  0.02  0.00
[...]
 1975 100   160   155   2.9 22.43  1.48 0.687  0.24 0.445 11.92  15.7 40.44 1.700     0     0  4.81  0.76 0.946  0.38  0.34  0.28  0.21  0.20  0.14  0.13  0.04  0.00  0.00
 1975 101   161   156   6.6 22.47  1.49 0.705  0.25 0.458 12.06  15.7 41.25 1.754     0     0  4.82  0.77 0.951  0.39  0.34  0.29  0.22  0.21  0.14  0.14  0.04  0.00  0.00
 1975 102   162   157  10.3 22.54  1.51 0.745  0.25 0.491 12.35  15.7 42.52 1.840     0     0  4.84  0.76 0.960  0.40  0.35  0.30  0.22  0.21  0.15  0.14  0.04  0.00  0.00
 1975 103   163   158   9.9 22.60  1.53 0.781  0.26 0.520 12.82  15.7 43.75 1.927     0     0  4.84  0.76 0.968  0.41  0.36  0.31  0.23  0.22  0.15  0.15  0.04  0.00  0.00
 1975 104   164   159  10.1 22.66  1.55 0.815  0.27 0.547 13.28  15.7 45.01 2.017     0     0  4.84  0.75 0.976  0.41  0.37  0.31  0.23  0.23  0.15  0.15  0.04  0.00  0.00
 1975 105   165   160   9.0 22.71  1.57 0.841  0.27 0.567 13.74  15.7 46.13 2.099     0     0  4.84  0.75 0.984  0.42  0.37  0.32  0.24  0.23  0.16  0.15  0.05  0.00  0.00
 1975 106   166   161   8.4 22.75  1.58 0.863  0.28 0.583 14.16  15.7 47.19 2.177     0     0  4.84  0.75 0.990  0.43  0.39  0.33  0.25  0.24  0.16  0.16  0.05  0.00  0.00
 1975 107   167   162   9.8 22.80  1.60 0.892  0.29 0.605 14.56  15.7 48.42 2.271     0     0  4.84  0.75 0.998  0.44  0.39  0.33  0.25  0.24  0.17  0.16  0.05  0.00  0.00
 1975 108   168   163  12.4 22.86  1.62 0.928  0.30 0.632 15.02  15.7 49.98 2.392     0     0  4.84  0.75 1.009  0.51  0.40  0.34  0.26  0.25  0.17  0.17  0.05  0.00  0.00
 1975 109   169   164  11.4 22.92  1.65 0.964  0.30 0.661 15.61  15.7 51.42 2.507     0     0  4.84  0.75 1.018  0.57  0.40  0.35  0.26  0.25  0.17  0.17  0.05  0.00  0.00
 1975 110   170   165   8.9 22.97  1.66     1  0.31 0.685 16.16  15.7 52.97 2.599     0     0  4.85  0.76 1.025  0.66  0.41  0.35  0.27  0.26  0.18  0.17  0.05  0.00  0.00
 1975 111   171   166  11.0 23.04  1.69 1.046  0.32 0.723 16.59  15.7 54.91 2.720     0     0  4.85  0.76 1.034  0.74  0.42  0.36  0.27  0.26  0.18  0.18  0.05  0.00  0.00
 1975 112   172   167  12.8 23.11  1.71 1.116  0.34 0.781 17.13  15.7 57.17 2.864     0     0  4.87  0.76 1.045  0.85  0.43  0.37  0.28  0.27  0.19  0.18  0.06  0.00  0.00
 1975 113   173   168  11.8 23.18  1.73 1.183  0.35 0.836 17.76  15.7 59.26 3.003     0     0  4.89  0.77 1.055  0.94  0.44  0.38  0.29  0.28  0.19  0.19  0.06  0.00  0.00
 1975 114   174   169  11.9 23.26  1.76 1.253  0.36 0.894 18.34  15.7 61.38 3.149     0     0  4.93  0.77 1.064  1.09  0.45  0.39  0.30  0.29  0.20  0.19  0.06  0.00  0.00
 1975 115   175   170  11.6 23.34  1.78 1.323  0.37 0.953 18.93  15.7 63.46 3.301     0     0  4.95  0.78 1.074  1.17  0.46  0.40  0.30  0.29  0.20  0.20  0.06  0.00  0.00
 1975 116   176   171  13.9 23.43  1.81 1.409  0.38 1.025 19.51  15.7 65.96 3.489     0     0  4.98  0.78 1.085  1.27  0.47  0.41  0.31  0.30  0.21  0.20  0.07  0.00  0.00
 1975 117   177   172  10.6 23.50  1.83 1.476  0.39 1.082 20.21  15.7 67.87 3.637     0     0  4.98  0.78 1.094  1.29  0.47  0.41  0.31  0.30  0.21  0.20  0.07  0.00  0.00
 1975 118   178   173  13.8 23.60  1.86 1.579  0.40 1.176 20.75  15.7 69.55 3.832     0     0  5.03  0.78 1.105  1.42  0.48  0.42  0.32  0.31  0.21  0.21  0.07  0.00  0.00
 1975 119   179   174   9.6 23.67  1.88 1.654  0.42 1.237 21.45  15.7 72.14 3.973     0     0  5.07  0.78 1.113  1.55  0.49  0.43  0.33  0.32  0.22  0.22  0.07  0.01  0.00
 1975 120   180   175   7.9 23.72  1.89 1.704  0.43 1.276 21.94  15.7 74.29 4.095     0     0  5.11  0.78 1.120  1.72  0.51  0.45  0.34  0.33  0.23  0.22  0.07  0.01  0.00
 1975 121   181   176  10.1 23.79  1.91 1.784  0.44 1.341 22.35  15.7 77.02 4.258     0     0  5.13  0.78 1.128  1.81  0.52  0.45  0.35  0.34  0.23  0.23  0.08  0.01  0.00
 1975 122   182   177  12.7 23.87  1.94 1.883  0.46 1.422 22.87  15.7 80.47 4.470     0     0  5.16  0.78 1.139  1.93  0.53  0.47  0.35  0.34  0.24  0.24  0.08  0.01  0.00
 1975 123   183   178   7.3 23.92  1.96 1.923  0.47 1.451 23.53  15.7 82.46 4.596     0     0  5.19  0.78 1.145  2.11  0.55  0.48  0.37  0.36  0.25  0.24  0.08  0.01  0.00
 1975 124   184   179   7.5 23.96  1.97 1.966  0.48 1.484 23.91  15.7 84.52 4.734     0     0  5.24  0.78 1.151  2.31  0.57  0.50  0.38  0.37  0.26  0.25  0.09  0.01  0.00
 1975 125   185   180   8.2 24.02  1.99 2.019  0.49 1.524 24.31  15.7 86.78 4.893     0     0  5.27  0.79 1.158  2.49  0.58  0.52  0.39  0.38  0.27  0.26  0.09  0.01  0.00
 1975 126   186   181   9.5 24.08  2.01 2.101  0.51 1.593 24.74  15.7 89.38 5.085     0     0  5.31  0.79 1.165  2.68  0.60  0.53  0.41  0.40  0.28  0.27  0.09  0.01  0.00
 1975 127   187   182  10.6 24.08  2.05 2.194  0.51 1.681 25.34  15.7 90.45 5.308     0     0  5.33  0.79 1.174  2.73  0.65  0.54  0.41  0.40  0.28  0.27  0.09  0.01  0.00
 1975 128   188   183  12.2 24.08  2.09 2.314  0.52 1.794 26.22  15.7 91.68 5.572     0     0  5.37  0.79 1.184  2.83  0.75  0.55  0.42  0.41  0.28  0.28  0.10  0.02  0.00
 1975 129   189   184  10.3 24.08  2.12 2.438  0.53 1.913 27.24  15.7 92.72 5.805     0     0  5.42  0.79 1.192  2.94  0.85  0.56  0.42  0.41  0.29  0.28  0.10  0.02  0.00
 1975 130   190   185  11.0 24.08  2.16 2.574  0.53 2.042 28.10  15.7 93.83 6.063     0     0  5.47  0.80 1.201  3.05  0.95  0.57  0.43  0.42  0.29  0.29  0.10  0.02  0.00
 1975 131   191   186   9.2 24.08  2.19 2.682  0.54 2.145 29.01  15.7 94.78 6.291     0     0  5.51  0.80 1.209  3.12  1.02  0.57  0.44  0.43  0.30  0.29  0.10  0.02  0.00
 1975 132   192   187   7.2 24.08  2.22 2.749  0.54 2.209 29.78  15.7 95.52 6.475     0     0  5.53  0.80 1.215  3.18  1.08  0.58  0.44  0.43  0.30  0.30  0.10  0.02  0.00
 1975 133   193   188  11.0 30.02  2.25 2.891  0.58 2.310 30.38  15.7 96.64 6.758     0     0  5.58  0.81 1.224  3.25  1.15  0.58  0.45  0.44  0.30  0.30  0.10  0.02  0.00
 1975 134   194   189  10.1 30.48  2.29 3.006  0.62 2.387 31.30  15.7 97.70 7.029     0     0  5.62  0.81 1.232  3.32  1.22  0.59  0.45  0.44  0.31  0.30  0.11  0.02  0.00
 1975 135   195   190   8.4 30.85  2.31 3.088  0.65 2.438 32.14  15.7 98.59 7.259     0     0  5.64  0.81 1.239  3.36  1.25  0.59  0.45  0.44  0.31  0.31  0.11  0.02  0.00
 1975 136   196   191   6.9 31.16  2.34 3.144  0.68 2.467 32.85  15.7 99.33 7.450     0     0  5.65  0.82 1.245  3.37  1.26  0.60  0.45  0.44  0.31  0.31  0.11  0.02  0.00
 1975 137   197   192   7.2 31.48  2.36 3.194  0.70 2.494 33.42  15.7 99.33 7.648     0     0  5.66  0.82 1.251  3.37  1.27  0.61  0.46  0.44  0.31  0.31  0.11  0.02  0.00
 1975 138   198   193   8.4 31.85  2.39 3.262  0.73 2.536 34.02  15.7 99.33 7.881     0     0  5.68  0.82 1.258  3.39  1.29  0.63  0.46  0.45  0.31  0.31  0.11  0.02  0.00
 1975 139   199   194  10.2 32.30  2.42 3.372  0.76 2.614 34.71  15.7 99.33 8.170     0     0  5.79  0.82 1.266  3.50  1.39  0.73  0.51  0.46  0.32  0.31  0.11  0.02  0.00
 1975 140   200   195  11.8 32.82  2.46 3.521  0.80 2.722 35.57  15.7 100.6 8.522     0     0  5.89  0.82 1.276  3.60  1.48  0.82  0.56  0.46  0.32  0.32  0.11  0.02  0.00
 1975 141   201   196  11.7 33.34  2.50 3.669  0.84 2.829 36.55  15.7 102.0 8.890     0     0  5.97  0.82 1.285  3.69  1.58  0.90  0.60  0.47  0.33  0.32  0.11  0.02  0.00
 1975 142   202   197   7.8 33.69  2.53 3.728  0.87 2.861 37.52  15.7 102.8 9.147     0     0  6.00  0.83 1.292  3.73  1.61  0.93  0.61  0.48  0.33  0.32  0.11  0.02  0.00
 1975 143   203   198   7.2 34.01  2.55 3.779  0.89 2.888 38.17  15.7 103.7 9.389     0     0  6.07  0.83 1.298  3.79  1.67  1.00  0.64  0.48  0.33  0.33  0.12  0.03  0.00
 1975 144   204   199   6.1 34.28  2.57 3.815  0.91 2.904 38.78  15.7 104.4 9.600     0     0  6.09  0.83 1.303  3.82  1.70  1.02  0.65  0.48  0.33  0.33  0.12  0.03  0.00
 1975 145   205   200   9.7 34.72  2.60 3.906  0.94 2.964 39.28  15.7 105.5 9.940     0     0  6.14  0.83 1.311  3.88  1.75  1.07  0.67  0.49  0.34  0.33  0.12  0.03  0.00
 1975 146   206   201  11.8 35.24  2.64 4.020  0.98 3.041 40.09  15.7 106.9 10.36     0     0  6.22  0.83 1.320  3.97  1.84  1.15  0.71  0.50  0.34  0.34  0.12  0.03  0.00
 1975 147   207   202  12.6 35.80  2.68 4.143  1.01 3.132 41.07  15.7 106.9 10.83     0     0  6.29  0.83 1.331  4.04  1.91  1.23  0.74  0.50  0.34  0.34  0.12  0.03  0.00
 1975 148   208   203  14.4 36.44  2.73 4.282  1.05 3.237 42.12  15.7 106.9 11.38     0     0  6.35  0.83 1.343  4.12  1.98  1.29  0.77  0.51  0.35  0.34  0.12  0.03  0.00
 1975 149   209   204   9.0 36.84  2.76 4.375  1.07 3.309 43.32  15.7 106.9 11.74     0     0  6.38  0.84 1.350  4.14  2.01  1.32  0.78  0.51  0.35  0.34  0.12  0.03  0.00
 1975 150   210   205   7.7 37.18  2.79 4.450  1.09 3.363 44.07  15.7 107.8 12.05     0     0  6.43  0.84 1.356  4.20  2.07  1.37  0.81  0.52  0.35  0.35  0.12  0.03  0.00
 1975 151   211   206   6.1 37.45  2.81 4.483  1.10 3.379 44.71  15.7 108.6 12.30     0     0  6.50  0.84 1.361  4.28  2.14  1.44  0.84  0.52  0.35  0.35  0.12  0.03  0.00
 1975 152   212   207   7.6 37.79  2.83 4.531  1.12 3.408 45.23  15.7 109.5 12.62     0     0  6.55  0.84 1.368  4.34  2.20  1.50  0.86  0.53  0.36  0.35  0.13  0.03  0.00
 1975 153   213   208   7.7 38.13  2.86 4.581  1.14 3.439 45.85  15.7 110.4 12.95     0     0  6.61  0.84 1.374  4.41  2.27  1.56  0.89  0.53  0.36  0.36  0.13  0.03  0.00
 1975 154   214   209   7.5 38.46  2.88 4.627  1.16 3.466 46.50  15.7 111.3 13.28     0     0  6.68  0.84 1.380  4.49  2.34  1.63  0.92  0.54  0.37  0.36  0.13  0.03  0.00
 1975 155   215   210   8.4 38.84  2.91 4.684  1.18 3.504 47.12  15.7 112.3 13.66     0     0  6.72  0.84 1.387  4.54  2.39  1.68  0.94  0.54  0.37  0.36  0.13  0.03  0.00
 1975 156   216   211  12.5 39.39  2.95 4.783  1.21 3.575 47.82  15.7 113.9 14.24     0     0  6.77  0.85 1.397  4.60  2.45  1.73  0.96  0.55  0.37  0.37  0.13  0.03  0.00
 1975 157   217   212  17.8 40.21  3.02 4.919  1.25 3.673 48.86  15.7 116.1 15.07     0     0  6.85  0.85 1.412  4.69  2.54  1.82  0.99  0.56  0.38  0.37  0.13  0.04  0.00
 1975 158   218   213  18.0 41.11  3.11 4.919  1.31 3.613 50.51  15.7 116.1 15.95     0     0  6.94  0.85 1.427  4.78  2.63  1.91  1.03  0.56  0.38  0.38  0.13  0.04  0.00
 1975 159   219   214  15.7 41.89  3.19 4.919  1.36 3.564 52.77  15.7 116.1 16.74     0     0  7.03  0.86 1.440  4.87  2.73  2.00  1.06  0.57  0.38  0.38  0.14  0.04  0.00
 1975 160   220   215  15.9 42.69  3.27 4.919  1.40 3.517 54.73  15.7 116.1 17.55     0     0  7.12  0.86 1.453  4.95  2.81  2.08  1.10  0.58  0.39  0.38  0.14  0.04  0.00
 1975 161   221   216  15.3 43.45  3.35 4.919  1.45 3.473 56.71  15.7 116.1 18.36     0     0  7.21  0.86 1.465  5.04  2.89  2.16  1.13  0.59  0.39  0.39  0.14  0.04  0.00
 1975 162   222   217  16.9 44.29  3.43 4.919  1.49 3.426 58.63  15.7 116.1 19.27     0     0  7.31  0.87 1.479  5.12  2.97  2.24  1.16  0.59  0.40  0.39  0.14  0.04  0.00
 1975 163   223   218  17.9 45.19  3.52 4.919  1.54 3.379 60.73  15.7 116.1 20.27     0     0  7.40  0.87 1.494  5.20  3.05  2.31  1.19  0.60  0.40  0.40  0.14  0.04  0.00
 1975 164   224   219  18.0 46.09  3.61 4.919  1.59 3.333 62.97  15.7 116.1 21.29     0     0  7.50  0.88 1.509  5.27  3.12  2.37  1.21  0.60  0.40  0.40  0.14  0.04  0.01
 1975 165   225   220  17.5 46.96  3.70 4.919  1.63 3.289 65.23  15.7 116.1 22.30     0     0  7.56  0.88 1.523  5.31  3.16  2.41  1.23  0.61  0.41  0.40  0.15  0.04  0.01
 1975 166   226   221  14.9 47.71  3.77 4.919  1.67 3.253 67.41  15.7 116.1 23.17     0     0  7.62  0.88 1.535  5.35  3.20  2.45  1.24  0.61  0.41  0.40  0.15  0.04  0.01
 1975 167   227   222  10.4 48.23  3.82 4.919  1.69 3.228 69.27  15.7 116.1 23.78     0     0  7.69  0.89 1.544  5.39  3.24  2.49  1.26  0.61  0.41  0.41  0.15  0.04  0.01
 1975 168   228   223  13.8 48.92  3.89 4.919  1.72 3.196 70.57  15.7 116.1 24.60     0     0  7.77  0.89 1.550  5.44  3.28  2.53  1.27  0.62  0.41  0.41  0.15  0.04  0.01
 1975 169   229   224  13.4 49.58  3.96 4.919  1.75 3.165 72.29  15.7 116.1 25.41     0     0  7.86  0.89 1.550  5.49  3.33  2.58  1.29  0.62  0.41  0.41  0.15  0.04  0.01
 1975 170   230   225  15.5 51.43  4.04 4.919  1.79 3.130 73.96  15.7 116.1 26.36     0     0  7.94  0.90 1.550  5.53  3.37  2.62  1.31  0.62  0.42  0.41  0.15  0.05  0.01
 1975 171   231   226  16.8 54.79  4.12 4.919  1.82 3.097 75.89  15.7 116.1 27.40     0     0  8.05  0.91 1.550  5.58  3.42  2.66  1.32  0.63  0.42  0.41  0.15  0.05  0.01
 1975 172   232   227  17.5 58.30  4.21 4.919  1.86 3.063 77.99  15.7 116.1 28.49     0     0  8.16  0.91 1.550  5.61  3.46  2.70  1.34  0.63  0.42  0.42  0.15  0.05  0.01
 1975 173   233   228  16.0 63.73  4.29 4.919  1.89 3.033 80.19  15.7 116.1 29.50     0     0  8.25  0.91 1.550  5.65  3.49  2.73  1.35  0.63  0.42  0.42  0.15  0.05  0.01
 1975 174   234   229  13.8 70.09  4.36 4.919  1.91 3.007 82.18  15.7 116.1 30.38     0     0  8.33  0.95 1.550  5.66  3.50  2.74  1.35  0.64  0.42  0.42  0.15  0.05  0.01
 1975 175   235   230  17.3 71.42  4.44 4.919  1.94 2.975 83.90  15.7 116.1 31.48 49484 .0000  8.54  0.96 1.550  5.67  3.52  2.76  1.36  0.64  0.42  0.42  0.15  0.05  0.01
 1975 176   236   231  14.4 72.53  4.51 4.919  1.97 2.949 86.06  15.7 116.1 32.40 49484 .0002  8.78  0.98 1.550  5.68  3.53  2.77  1.37  0.64  0.42  0.42  0.15  0.05  0.01
 1975 177   237   232  15.7 73.73  4.59 4.919  2.00 2.921 87.86  15.7 116.1 33.41 49484 .0006  8.90  0.96 1.550  5.69  3.54  2.78  1.37  0.64  0.42  0.42  0.15  0.05  0.01
 1975 178   238   233  14.1 74.82  4.66 4.919  2.02 2.896 89.82  15.7 116.1 34.33 49484 .0011  9.05  0.98 1.550  5.70  3.55  2.78  1.37  0.64  0.42  0.42  0.15  0.05  0.01
 1975 179   239   234  11.5 75.71  4.72 4.919  2.04 2.875 91.59  15.7 116.1 35.07 49484 .0015  9.15  0.98 1.550  5.70  3.55  2.79  1.37  0.64  0.42  0.42  0.15  0.05  0.01
 1975 180   240   235  12.2 76.65  4.78 4.919  2.07 2.854 93.03  15.7 116.1 35.86 49484 .0020  9.29  0.98 1.550  5.71  3.55  2.79  1.38  0.64  0.42  0.42  0.15  0.05  0.01
 1975 181   241   236  14.2 77.74  4.85 4.919  2.09 2.829 94.55  15.7 116.1 36.78 49484 .0029  9.41  0.98 1.550  5.71  3.56  2.80  1.38  0.64  0.42  0.42  0.15  0.05  0.01
 1975 182   242   237  14.9 78.88  4.93 4.919  2.17 2.747 96.33  15.7 116.1 37.74 49484 .0040  9.49  0.98 1.550  5.71  3.56  2.80  1.38  0.64  0.42  0.42  0.15  0.05  0.01
 1975 183   243   238  15.6 80.02  5.00 4.919  2.25 2.665 98.18  15.7 116.1 38.75 49484 .0054  9.55  0.98 1.550  5.71  3.56  2.80  1.38  0.64  0.42  0.42  0.15  0.05  0.01
 1975 184   244   239  14.9 80.30  5.03 4.919  2.32 2.602 100.0  15.7 116.1 39.71 49484 .0068  9.60  0.98 1.550  5.70  3.56  2.80  1.38  0.64  0.42  0.42  0.15  0.05  0.01
 1975 185   245   240  16.8 80.62  5.06 4.919  2.38 2.539 100.0  15.7 116.1 40.80 49484 .0086  9.63  0.98 1.550  5.70  3.56  2.80  1.38  0.64  0.42  0.42  0.15  0.05  0.01
 1975 186   246   241  14.1 80.88  5.09 4.919  2.44 2.479 100.0  15.7 116.1 41.71 49484 .0099  9.66  0.98 1.550  5.70  3.56  2.80  1.38  0.64  0.42  0.42  0.15  0.05  0.01
 1975 187   247   242  16.3 81.19  5.12 4.919  2.55 2.369 100.0  15.7 116.1 42.77 49484 .0105  9.69  0.98 1.550  5.70  3.55  2.80  1.38  0.64  0.42  0.42  0.15  0.05  0.01
 1975 188   248   243  17.0 81.52  5.15 4.919  2.66 2.263 100.0  15.7 116.1 43.87 49484 .0109  9.71  0.98 1.550  5.69  3.55  2.79  1.37  0.64  0.42  0.42  0.15  0.05  0.01
 1975 189   249   244  18.1 81.86  5.19 4.919  2.76 2.161 100.0  15.7 116.1 45.04 49484 .0112  9.73  0.98 1.550  5.69  3.55  2.79  1.37  0.64  0.42  0.42  0.15  0.05  0.01
 1975 190   250   245  17.5 82.19  5.22 4.919  2.86 2.063 100.0  15.7 116.1 46.17 49484 .0114  9.74  0.98 1.550  5.68  3.55  2.79  1.37  0.64  0.42  0.42  0.15  0.05  0.01
 1975 191   251   246  17.7 82.52  5.25 4.919  2.95 1.970 100.0  15.7 116.1 47.31 49484 .0116  9.76  0.98 1.550  5.68  3.54  2.79  1.37  0.63  0.42  0.42  0.15  0.05  0.01
 1975 192   252   247  18.2 82.86  5.29 4.919  3.04 1.880 100.0  15.7 116.1 48.48 49484 .0118  9.77  0.98 1.550  5.67  3.54  2.79  1.37  0.63  0.42  0.42  0.15  0.05  0.01
 1975 193   253   248  15.3 83.15  5.32 4.919  3.09 1.833 100.0  15.7 116.1 49.47 49484 .0119  9.78  0.98 1.550  5.67  3.54  2.78  1.37  0.63  0.42  0.42  0.15  0.05  0.01
 1975 194   254   249  19.0 83.51  5.35 4.919  3.13 1.784 100.0  15.7 116.1 50.69 49484 .0122  9.80  0.98 1.550  5.66  3.54  2.78  1.37  0.63  0.42  0.42  0.15  0.05  0.01
 1975 195   255   250  20.2 83.89  5.39 4.919  3.22 1.701 100.0  15.7 116.1 52.00 49484 .0123  9.81  0.98 1.550  5.66  3.53  2.78  1.37  0.63  0.42  0.42  0.15  0.05  0.01
 1975 196   256   251  17.6 84.23  5.42 4.919  3.30 1.622 100.0  15.7 116.1 53.13 49484 .0124  9.82  0.98 1.550  5.65  3.53  2.78  1.37  0.63  0.42  0.42  0.15  0.05  0.01
 1975 197   257   252  17.8 84.56  5.46 4.919  3.37 1.547 100.0  15.7 116.1 54.27 49484 .0125  9.84  0.98 1.550  5.65  3.53  2.77  1.36  0.63  0.42  0.42  0.15  0.05  0.01
 1975 198   258   253  18.5 84.91  5.49 4.919  3.45 1.474 100.0  15.7 116.1 55.45 49484 .0126  9.85  0.98 1.550  5.64  3.52  2.77  1.36  0.63  0.42  0.42  0.15  0.05  0.01
 1975 199   259   254  16.8 85.23  5.52 4.919  3.48 1.435 100.0  15.7 116.1 56.53 49484 .0143  9.86  0.98 1.550  5.64  3.52  2.77  1.36  0.63  0.42  0.41  0.15  0.05  0.01
 1975 200   260   255  16.2 85.54  5.55 4.919  3.52 1.396 100.0  15.7 116.1 57.57 49484 .0155  9.87  0.98 1.550  5.63  3.52  2.77  1.36  0.63  0.42  0.41  0.15  0.05  0.01
 1975 201   261   256  17.9 85.87  5.59 4.919  3.56 1.358 100.0  15.7 116.1 58.71 49484 .0158  9.88  0.98 1.550  5.63  3.51  2.77  1.36  0.63  0.42  0.41  0.15  0.05  0.01
 1975 202   262   257  15.8 86.17  5.62 4.919  3.62 1.295 100.0  15.7 116.1 59.72 49484 .0158  9.88  0.98 1.550  5.62  3.51  2.76  1.36  0.63  0.42  0.41  0.15  0.05  0.01
 1975 203   263   258  17.0 86.49  5.65 4.919  3.66 1.259 100.0  15.7 116.1 60.80 49484 .0159  9.89  0.98 1.550  5.62  3.51  2.76  1.36  0.63  0.42  0.41  0.15  0.05  0.01
 1975 204   264   259  17.2 86.82  5.68 4.919  3.72 1.199 100.0  15.7 116.1 61.90 49484 .0159  9.90  0.98 1.550  5.62  3.51  2.76  1.36  0.63  0.42  0.41  0.15  0.05  0.01
 1975 205   265   260  13.4 87.07  5.71 4.919  3.78 1.144 100.0  15.7 116.1 62.76 49484 .0159  9.91  0.98 1.550  5.61  3.50  2.76  1.36  0.63  0.42  0.41  0.15  0.05  0.01
 1975 206   266   261  13.9 87.33  5.73 4.919  3.85 1.072 100.0  15.7 116.1 63.64 49484 .0161  9.92  0.98 1.550  5.61  3.50  2.75  1.35  0.63  0.42  0.41  0.15  0.05  0.01
 1975 207   267   262  18.0 87.67  5.77 4.919  3.94 0.978 100.0  15.7 116.1 64.79 49484 .0161  9.93  0.98 1.550  5.60  3.50  2.75  1.35  0.63  0.42  0.41  0.15  0.05  0.01
 1975 208   268   263  19.2 88.04  5.80 4.919  4.05 0.874 100.0  15.7 116.1 66.01 49484 .0161  9.94  0.98 1.550  5.60  3.49  2.75  1.35  0.63  0.42  0.41  0.15  0.05  0.01
 1975 209   269   264  20.5 88.42  5.84 4.919  4.15 0.769 100.0  15.7 116.1 67.32 49484 .0162  9.95  0.98 1.550  5.59  3.49  2.75  1.35  0.63  0.42  0.41  0.15  0.05  0.01
 1975 210   270   265  20.9 88.82  5.88 4.919  4.26 0.663 100.0  15.7 116.1 68.64 49484 .0162  9.96  0.98 1.550  5.59  3.49  2.74  1.35  0.62  0.42  0.41  0.15  0.05  0.01
 1975 211   271   266  21.2 89.22  5.92 4.919  4.36 0.561 100.0  15.7 116.1 69.99 49484 .0162  9.97  0.98 1.550  5.58  3.48  2.74  1.35  0.62  0.41  0.41  0.15  0.05  0.01
 1975 212   272   267  20.2 89.60  5.96 4.919  4.45 0.473 100.0  15.7 116.1 71.27 49484 .0163  9.98  0.98 1.550  5.57  3.48  2.74  1.35  0.62  0.41  0.41  0.15  0.05  0.01
 1975 213   273   268  20.2 89.98  6.00 4.919  4.54 0.381 100.0  15.7 116.1 72.55 49484 .0163  9.99  0.98 1.550  5.57  3.48  2.74  1.34  0.62  0.41  0.41  0.15  0.05  0.01
 1975 214   274   269  19.3 90.91  6.09 4.919  4.63 0.293 100.0  15.7 116.1 73.77 49484 .0163 10.00  0.98 1.550  5.56  3.47  2.73  1.34  0.62  0.41  0.41  0.15  0.05  0.01
