$GROWTH FACTOR OUTPUT FILE

*DSSAT Cropping System Model Ver. 4.8.2.010 -develop  JUL 08, 2024 16:11:18

*RUN   1        : 0 KG N/HA                 CSCER048 RORO7401    1
 MODEL          : CSCER048 - Wheat
 EXPERIMENT     : RORO7401 WH N RESPONSE,ROTHAMSTED  8FE(N)  (DSSAT3)
 DATA PATH      : C:\DSSAT48\Wheat\
 TREATMENT  1   : 0 KG N/HA                 CSCER048
  
!........DATES.......  TEMP STAGE  ...PHENOLOGY....  .......PHOTOSYNTHESIS.......  .....GROWTH.....  ..TILLERS. WATER STRESS DETERMINANTS N STRESS DETERMINANTS       
@YEAR DOY   DAS   DAP TMEAN  GSTD    DU VRNFD DYLFD TFGEM  WFGE  TFPD  WFPD  NFPD CO2FD RSFPD  TFGD  WFGD  NFGD  WFTD  NFTD WAVRD WUPRD  SWXD  EOPD  SNXD LN%RD SN%RD RN%RD      
 1974 310     5     0   5.5   0.0   5.5  0.50  0.00  0.82  0.00  0.00  0.00  0.00 -0.00  0.00  0.45  0.00  0.00  0.00  0.00 99.90  1.00   6.9   0.0  78.5  0.00  0.00  0.00
 1974 311     6     1   7.6   3.3   3.8  0.50  0.00  0.74  0.00  0.00  0.00  0.00 -0.00  0.00  0.24  0.00  0.00  0.00  0.00 99.90  1.00   7.4   0.0  78.4  0.00  0.00  0.00
 1974 312     7     2   9.0   5.7   4.5  0.50  0.00  0.68  0.00  0.00  0.00  0.00 -0.00  0.00  0.10  0.00  0.00  0.00  0.00 99.90  1.00   7.2   0.0  78.3  0.00  0.00  0.00
 1974 313     8     3   9.9   7.1   4.9  0.49  0.00  0.64  0.00  0.00  0.00  0.00 -0.00  0.00  0.01  0.00  0.00  0.00  0.00 99.90  1.00  10.7   0.0  78.2  0.00  0.00  1.00
 1974 314     9     4   7.5   8.1   3.8  0.49  0.00  0.74  0.00  0.00  0.00  0.00 -0.00  0.00  0.25  0.00  0.00  0.00  0.00 99.90  1.00  12.8   0.0  78.0  0.00  0.00  1.00
 1974 315    10     5   7.3   9.1   3.8  0.48  0.00  0.75  0.00  0.00  0.00  0.00 -0.00  0.00  0.26  0.00  0.00  0.00  0.00 99.90  1.00  15.4   0.0  77.8  0.00  0.00  1.00
 1974 316    11     6   5.0   9.7   2.6  0.47  0.00  0.84  0.00  0.00  0.00  0.00 -0.00  0.00  0.50  0.00  0.00  0.00  0.00 99.90  1.00  15.8   0.0  77.6  0.00  0.00  1.00
 1974 317    12     7   6.0  10.0   3.2  0.46  0.00  0.80  0.00  0.00  0.00  0.00 -0.00  0.00  0.40  0.00  0.00  0.00  0.00 99.90  1.00  18.9   0.0  77.4  0.00  0.00  1.00
 1974 318    13     8   9.0  10.2   0.9  0.45  0.81  0.68  0.00  0.00  0.00  0.00 -0.00  0.00  0.10  0.00  0.00  0.00  0.00 99.90  1.00  21.6   0.0  77.3  1.00  0.00  1.00
 1974 319    14     9   8.2  10.3   0.8  0.44  0.82  0.71  0.00  0.00  0.00  0.00 -0.00  0.00  0.18  0.00  0.00  0.00  0.00 99.90 15.00  24.0   0.0  77.1  0.99  0.28  1.00
 1974 320    15    10   7.1  10.5   0.7  0.43  0.83  0.76  0.00  0.00  0.00  0.01 -0.00  0.00  0.29  0.00  0.01  0.00  0.01 99.90 15.00  25.9   0.0  76.9  1.00  0.35  1.00
 1974 321    16    11   5.6  10.6   0.5  0.42  0.83  0.81  0.00  0.00  0.00  0.00 -0.00  0.00  0.44  0.00  0.00  0.00  0.00 99.90 15.00  27.9   0.0  76.8  1.00  0.39  1.00
 1974 322    17    12   4.8  10.7   0.4  0.41  0.84  0.85  0.00  0.03  0.00  0.00 -0.00  0.00  0.51  0.00  0.00  0.00  0.00 99.90 15.00  29.4   0.0  76.4  1.00  0.45  1.00
 1974 323    18    13   4.4  10.8   0.4  0.40  0.85  0.86  0.00  0.12  0.00  0.00 -0.00  0.00  0.56  0.00  0.00  0.00  0.00 99.90 10.25  30.6   0.0  76.0  1.00  0.51  1.00
 1974 324    19    14   4.0  10.9   0.3  0.40  0.86  0.88  0.00  0.19  0.00  0.00 -0.00  0.00  0.60  0.00  0.00  0.00  0.00 99.90 15.00  32.1   0.0  75.6  1.00  0.55  1.00
 1974 325    20    15   7.0  11.0   0.6  0.39  0.86  0.76  0.00  0.00  0.00  0.00 -0.00  0.00  0.30  0.00  0.00  0.00  0.00 99.90 15.00  34.3   0.0  74.8  1.00  0.50  1.00
 1974 326    21    16   7.9  11.2   0.6  0.38  0.87  0.72  0.00  0.00  0.00  0.00 -0.00  0.00  0.21  0.00  0.00  0.00  0.00 99.90 15.00  34.3   0.0  74.3  1.00  0.43  1.00
 1974 327    22    17   8.2  11.3   0.6  0.37  0.88  0.71  0.00  0.00  0.00  0.00 -0.00  0.00  0.18  0.00  0.00  0.00  0.00 99.90 15.00  35.1   0.0  73.8  1.00  0.39  1.00
 1974 328    23    18   5.4  11.4   0.4  0.36  0.88  0.83  0.00  0.00  0.00  0.00 -0.00  0.00  0.46  0.00  0.00  0.00  0.00 99.90 15.00  36.7   0.0  73.3  1.00  0.42  1.00
 1974 329    24    19   5.6  11.5   0.4  0.35  0.89  0.82  0.00  0.00  0.00  0.00 -0.00  0.00  0.44  0.00  0.00  0.00  0.00 99.90  9.32  36.3   0.0  72.3  1.00  0.44  1.00
 1974 330    25    20   5.0  11.6   0.3  0.34  0.89  0.84  0.00  0.00  0.00  0.00 -0.00  0.00  0.50  0.00  0.00  0.00  0.00 99.90 15.00  37.3   0.0  72.1  1.00  0.45  1.00
 1974 331    26    21   4.6  11.7   0.3  0.33  0.90  0.86  0.00  0.09  0.00  0.00 -0.00  0.00  0.54  0.00  0.00  0.00  0.00 99.90 15.00  38.9   0.0  71.9  1.00  0.48  1.00
 1974 332    27    22   5.3  11.8   0.3  0.32  0.91  0.83  0.00  0.00  0.00  0.00 -0.00  0.00  0.47  0.00  0.00  0.00  0.00 99.90 15.00  41.5   0.0  71.7  1.00  0.48  1.00
 1974 333    28    23   6.9  12.0   0.4  0.31  0.91  0.76  0.00  0.00  0.00  0.00 -0.00  0.00  0.31  0.00  0.00  0.00  0.00 99.90 14.30  45.0   0.0  71.5  1.00  0.46  1.00
 1974 334    29    24   7.8  12.1   0.4  0.30  0.92  0.73  0.00  0.00  0.00  0.00 -0.00  0.00  0.23  0.00  0.00  0.00  0.00 99.90 15.00  44.4   0.0  71.1  1.00  0.45  1.00
 1974 335    30    25   8.7  12.2   0.5  0.30  0.92  0.69  0.00  0.00  0.00  0.00 -0.00  0.00  0.13  0.00  0.00  0.00  0.00 99.90 15.00  45.8   0.0  71.0  1.00  0.44  1.00
 1974 336    31    26  11.0  12.3   0.6  0.29  0.93  0.60  0.00  0.00  0.00  0.00 -0.00  0.00  0.00  0.00  0.00  0.00  0.00 99.90 15.00  46.9   0.0  70.8  1.00  0.41  1.00
 1974 337    32    27  11.1  12.4   0.5  0.29  0.93  0.60  0.00  0.00  0.00  0.00 -0.00  0.00  0.00  0.00  0.00  0.00  0.00 99.90 15.00  48.5   0.0  70.6  1.00  0.40  1.00
 1974 338    33    28  10.0  12.5   0.5  0.28  0.94  0.64  0.00  0.00  0.00  0.00 -0.00  0.00  0.00  0.00  0.00  0.00  0.00 99.90 12.52  50.2   0.0  70.5  0.98  0.39  1.00
 1974 339    34    29   6.2  12.5   0.3  0.27  0.94  0.79  0.00  0.00  0.00  0.02 -0.00  0.00  0.38  0.00  0.02  0.00  0.02 99.90 13.03  51.2   0.0  70.3  0.98  0.43  0.99
 1974 340    35    30   8.1  12.6   0.3  0.26  0.94  0.71  0.00  0.00  0.00  0.03 -0.00  0.00  0.19  0.00  0.03  0.00  0.03 99.90 15.00  52.6   0.0  70.2  0.96  0.45  0.98
 1974 341    36    31   9.4  12.7   0.4  0.26  0.95  0.66  0.00  0.00  0.00  0.04 -0.00  0.00  0.06  0.00  0.04  0.00  0.04 99.90 15.00  54.2   0.0  70.0  0.94  0.46  0.97
 1974 342    37    32   9.8  12.8   0.4  0.25  0.95  0.65  0.00  0.00  0.00  0.07 -0.00  0.00  0.02  0.00  0.07  0.00  0.07 99.90 15.00  56.5   0.0  69.8  0.91  0.47  0.96
 1974 343    38    33   7.5  12.9   0.3  0.24  0.95  0.74  0.00  0.00  0.00  0.10 -0.00  0.00  0.25  0.00  0.10  0.00  0.10 99.90 15.00  57.9   0.0  69.7  0.91  0.49  0.96
 1974 344    39    34   3.3  12.9   0.1  0.23  0.96  0.91  0.00  0.34  0.00  0.10 -0.00  0.00  0.67  0.00  0.10  0.00  0.10 99.90 15.00  65.2   0.0  69.6  0.91  0.52  0.96
 1974 345    40    35   2.2  12.9   0.1  0.22  0.96  0.95  0.00  0.56  0.00  0.10 -0.00  0.00  0.78  0.00  0.10  0.00  0.10 99.90 15.00  67.3   0.0  69.5  0.92  0.55  0.96
 1974 346    41    36   4.5  13.0   0.1  0.21  0.96  0.86  0.00  0.09  0.00  0.09 -0.00  0.00  0.55  0.00  0.09  0.00  0.09 99.90 15.00  70.3   0.0  69.4  0.92  0.58  0.97
 1974 347    42    37   3.6  13.0   0.1  0.20  0.97  0.90  0.00  0.29  0.00  0.09 -0.00  0.00  0.64  0.00  0.09  0.00  0.09 99.90 12.26  65.4   0.0  68.8  0.93  0.60  0.97
 1974 348    43    38   4.5  13.1   0.1  0.20  0.97  0.86  0.00  0.10  0.00  0.08 -0.00  0.00  0.55  0.00  0.08  0.00  0.08 99.90 15.00  65.2   0.0  68.8  0.93  0.63  0.97
 1974 349    44    39   4.9  13.1   0.1  0.19  0.97  0.84  0.00  0.02  0.00  0.08 -0.00  0.00  0.51  0.00  0.08  0.00  0.08 99.90 12.31  65.0   0.0  68.7  0.94  0.65  0.97
 1974 350    45    40   6.3  13.2   0.1  0.18  0.97  0.79  0.00  0.00  0.00  0.07 -0.00  0.00  0.37  0.00  0.07  0.00  0.07 99.90 15.00  67.3   0.0  68.6  0.93  0.66  0.97
 1974 351    46    41   4.8  13.2   0.1  0.17  0.97  0.85  0.00  0.05  0.00  0.08 -0.00  0.00  0.52  0.00  0.08  0.00  0.08 99.90 12.69  65.9   0.0  68.3  0.94  0.68  0.97
 1974 352    47    42   5.6  13.3   0.1  0.16  0.97  0.81  0.00  0.00  0.00  0.07 -0.00  0.00  0.44  0.00  0.07  0.00  0.07 99.90 15.00  66.6   0.0  68.2  0.94  0.70  0.97
 1974 353    48    43   6.5  13.3   0.1  0.15  0.97  0.78  0.00  0.00  0.00  0.07 -0.00  0.00  0.35  0.00  0.07  0.00  0.07 99.90 15.00  67.3   0.0  68.1  0.93  0.71  0.96
 1974 354    49    44   9.4  13.4   0.2  0.14  0.98  0.66  0.00  0.00  0.00  0.07 -0.00  0.00  0.06  0.00  0.07  0.00  0.07 99.90 15.00  68.9   0.0  68.0  0.91  0.70  0.96
 1974 355    50    45   9.4  13.5   0.2  0.13  0.98  0.66  0.00  0.00  0.00  0.10 -0.00  0.00  0.06  0.00  0.10  0.00  0.10 99.90 15.00  72.5   0.0  67.9  0.89  0.71  0.95
 1974 356    51    46  10.0  13.6   0.2  0.13  0.98  0.64  0.00  0.00  0.00  0.12 -0.00  0.00  0.00  0.00  0.12  0.00  0.12 99.90 15.00  75.6   0.0  67.8  0.87  0.71  0.94
 1974 357    52    47  10.2  13.7   0.2  0.12  0.98  0.63  0.00  0.00  0.00  0.14 -0.00  0.00  0.00  0.00  0.14  0.00  0.14 99.90 13.33  77.2   0.0  67.7  0.86  0.70  0.94
 1974 358    53    48   7.6  13.8   0.2  0.11  0.98  0.74  0.00  0.00  0.00  0.16 -0.00  0.00  0.24  0.00  0.16  0.00  0.16 99.90 15.00  78.5   0.0  67.6  0.86  0.71  0.94
 1974 359    54    49   6.9  13.9   0.2  0.11  0.97  0.76  0.00  0.00  0.00  0.16 -0.00  0.00  0.31  0.00  0.16  0.00  0.16 99.90 15.00  82.6   0.0  67.4  0.87  0.73  0.94
 1974 360    55    50   7.9  14.0   0.2  0.10  0.97  0.72  0.00  0.00  0.00  0.15 -0.00  0.00  0.21  0.00  0.15  0.00  0.15 99.90 15.00  91.4   0.0  67.3  0.87  0.73  0.94
 1974 361    56    51   9.8  14.1   0.2  0.09  0.97  0.65  0.00  0.00  0.00  0.15 -0.00  0.00  0.02  0.00  0.15  0.00  0.15 99.90 15.00  90.8   0.0  67.1  0.85  0.73  0.93
 1974 362    57    52  10.5  14.2   0.3  0.09  0.97  0.62  0.00  0.00  0.00  0.17 -0.00  0.00  0.00  0.00  0.17  0.00  0.17 99.90 15.00  90.4   0.0  67.0  0.84  0.73  0.93
 1974 363    58    53  10.4  14.3   0.3  0.08  0.97  0.62  0.00  0.00  0.00  0.18 -0.00  0.00  0.00  0.00  0.18  0.00  0.18 99.90 15.00  90.0   0.0  66.8  0.84  0.74  0.93
 1974 364    59    54   4.1  14.3   0.1  0.07  0.97  0.88  0.00  0.18  0.00  0.18 -0.00  0.00  0.59  0.00  0.18  0.00  0.18 99.90 12.63  86.5   0.1  66.0  0.85  0.76  0.93
 1974 365    60    55   5.0  14.4   0.2  0.06  0.97  0.84  0.00  0.00  0.00  0.17 -0.00  0.00  0.50  0.00  0.17  0.00  0.17 99.90 15.00  85.5   0.0  65.8  0.86  0.77  0.94
 1975   1    61    56   6.0  14.4   0.2  0.05  0.96  0.80  0.00  0.00  0.00  0.16 -0.00  0.00  0.40  0.00  0.16  0.00  0.16 99.90 15.00  87.5   0.0  65.7  0.87  0.79  0.94
 1975   2    62    57   7.5  14.5   0.3  0.04  0.96  0.74  0.00  0.00  0.00  0.15 -0.00  0.00  0.25  0.00  0.15  0.00  0.15 99.90 15.00  87.2   0.0  65.5  0.88  0.80  0.94
 1975   3    63    58   7.2  14.6   0.3  0.03  0.96  0.75  0.00  0.00  0.00  0.14 -0.00  0.00  0.27  0.00  0.14  0.00  0.14 99.90 15.00  88.0   0.0  65.4  0.89  0.81  0.95
 1975   4    64    59   4.0  14.6   0.2  0.02  0.95  0.88  0.00  0.20  0.00  0.13 -0.00  0.00  0.60  0.00  0.13  0.00  0.13 99.90 15.00  88.4   0.0  65.4  0.89  0.83  0.95
 1975   5    65    60   5.1  14.7   0.2  0.01  0.95  0.83  0.00  0.00  0.00  0.12 -0.00  0.00  0.49  0.00  0.12  0.00  0.12 99.90 15.00  89.1   0.0  65.3  0.90  0.84  0.95
 1975   6    66    61   8.4  14.7   0.4  0.01  0.95  0.70  0.00  0.00  0.00  0.11 -0.00  0.00  0.16  0.00  0.11  0.00  0.11 99.90 15.00  92.9   0.0  65.3  0.91  0.85  0.96
 1975   7    67    62   6.7  14.8   0.4  0.00  0.94  0.77  0.00  0.00  0.00  0.11 -0.00  0.00  0.33  0.00  0.11  0.00  0.11 99.90 15.00  93.7   0.0  65.2  0.91  0.86  0.96
 1975   8    68    63   6.9  14.9   0.4  0.00  0.94  0.76  0.00  0.00  0.00  0.10 -0.00  0.00  0.31  0.00  0.10  0.00  0.10 99.90 15.00  93.5   0.0  65.1  0.92  0.87  0.96
 1975   9    69    64   7.2  15.0   0.5  0.00  0.94  0.75  0.00  0.00  0.00  0.09 -0.00  0.00  0.28  0.00  0.09  0.00  0.09 99.90 15.00  94.5   0.0  65.0  0.92  0.87  0.96
 1975  10    70    65   8.1  15.0   0.6  0.00  0.93  0.72  0.00  0.00  0.00  0.09 -0.00  0.00  0.19  0.00  0.09  0.00  0.09 99.90 15.00  95.6   0.0  64.9  0.93  0.88  0.97
 1975  11    71    66   8.9  15.1   0.7  0.00  0.93  0.69  0.00  0.00  0.00  0.08 -0.00  0.00  0.11  0.00  0.08  0.00  0.08 99.90 15.00  96.9   0.0  64.8  0.93  0.89  0.97
 1975  12    72    67   7.9  15.2   0.6  0.00  0.92  0.73  0.00  0.00  0.00  0.08 -0.00  0.00  0.21  0.00  0.08  0.00  0.08 99.90 15.00 102.2   0.0  64.7  0.94  0.89  0.97
 1975  13    73    68   5.6  15.3   0.5  0.00  0.92  0.82  0.00  0.00  0.00  0.07 -0.00  0.00  0.44  0.00  0.07  0.00  0.07 99.90 15.00 100.5   0.0  64.4  0.94  0.90  0.97
 1975  14    74    69   7.8  15.3   0.7  0.00  0.91  0.73  0.00  0.00  0.00  0.07 -0.00  0.00  0.22  0.00  0.07  0.00  0.07 99.90 15.00 103.0   0.0  64.4  0.94  0.91  0.97
 1975  15    75    70   8.4  15.4   0.8  0.00  0.91  0.70  0.00  0.00  0.00  0.07 -0.00  0.00  0.16  0.00  0.07  0.00  0.07 99.90 12.11 106.7   0.1  64.3  0.94  0.91  0.97
 1975  16    76    71   4.8  15.5   0.5  0.00  0.90  0.85  0.00  0.04  0.00  0.07 -0.00  0.00  0.52  0.00  0.07  0.00  0.07 99.90 15.00 109.9   0.0  64.2  0.94  0.91  0.97
 1975  17    77    72   4.8  15.5   0.5  0.00  0.89  0.85  0.00  0.05  0.00  0.06 -0.00  0.00  0.52  0.00  0.06  0.00  0.06 99.90 15.00 112.9   0.0  64.1  0.95  0.92  0.97
 1975  18    78    73   2.5  15.5   0.3  0.00  0.89  0.94  0.00  0.51  0.00  0.06 -0.00  0.00  0.75  0.00  0.06  0.00  0.06 99.90 15.00 119.4   0.0  64.0  0.95  0.93  0.97
 1975  19    79    74   3.5  15.6   0.4  0.00  0.88  0.90  0.00  0.29  0.00  0.06 -0.00  0.00  0.64  0.00  0.06  0.00  0.06 99.90 11.67 122.7   0.1  63.9  0.95  0.93  0.98
 1975  20    80    75   3.9  15.6   0.5  0.00  0.88  0.88  0.00  0.22  0.00  0.05 -0.00  0.00  0.61  0.00  0.05  0.00  0.05 99.90 15.00 123.6   0.0  63.6  0.96  0.93  0.98
 1975  21    81    76   5.1  15.7   0.7  0.00  0.87  0.84  0.00  0.00  0.00  0.05 -0.00  0.00  0.50  0.00  0.05  0.00  0.05 99.90 10.90 124.0   0.1  63.1  0.96  0.94  0.98
 1975  22    82    77   6.4  15.7   0.9  0.00  0.86  0.78  0.00  0.00  0.00  0.05 -0.00  0.00  0.36  0.00  0.05  0.00  0.05 99.90 15.00 124.2   0.0  62.5  0.96  0.94  0.98
 1975  23    83    78   4.9  15.8   0.7  0.00  0.86  0.85  0.00  0.03  0.00  0.04 -0.00  0.00  0.51  0.00  0.04  0.00  0.04 99.90 15.00 122.1   0.1  62.0  0.96  0.95  0.98
 1975  24    84    79   6.5  15.8   1.0  0.00  0.85  0.78  0.00  0.00  0.00  0.04 -0.00  0.00  0.35  0.00  0.04  0.00  0.04 99.90 11.58 125.0   0.1  61.5  0.96  0.95  0.98
 1975  25    85    80   7.8  15.9   1.2  0.00  0.84  0.73  0.00  0.00  0.00  0.04 -0.00  0.00  0.22  0.00  0.04  0.00  0.04 99.90 15.00 123.9   0.1  60.9  0.96  0.95  0.98
 1975  26    86    81   4.7  16.0   0.8  0.00  0.84  0.85  0.00  0.06  0.00  0.05 -0.00  0.00  0.53  0.00  0.05  0.00  0.05 99.90 10.25 128.1   0.1  60.4  0.96  0.95  0.98
 1975  27    87    82   4.2  16.0   0.7  0.00  0.83  0.87  0.00  0.17  0.00  0.04 -0.00  0.00  0.58  0.00  0.04  0.00  0.04 99.90 15.00 129.1   0.0  59.8  0.96  0.95  0.98
 1975  28    88    83   4.1  16.0   0.7  0.00  0.82  0.88  0.00  0.18  0.00  0.04 -0.00  0.00  0.59  0.00  0.04  0.00  0.04 99.90 15.00 129.9   0.0  59.2  0.97  0.96  0.98
 1975  29    89    84   5.7  16.1   1.1  0.00  0.81  0.81  0.00  0.00  0.00  0.04 -0.00  0.00  0.44  0.00  0.04  0.00  0.04 99.90 15.00 128.7   0.0  58.5  0.97  0.96  0.98
 1975  30    90    85   7.8  16.2   1.5  0.00  0.81  0.73  0.00  0.00  0.00  0.04 -0.00  0.00  0.22  0.00  0.04  0.00  0.04 99.90 15.00 127.4   0.1  57.8  0.95  0.95  0.98
 1975  31    91    86   9.5  16.3   1.9  0.00  0.80  0.66  0.00  0.00  0.00  0.05 -0.00  0.00  0.05  0.00  0.05  0.00  0.05 99.90 15.00 129.1   0.0  57.1  0.93  0.94  0.97
 1975  32    92    87   6.8  16.3   1.4  0.00  0.79  0.77  0.00  0.00  0.00  0.08 -0.00  0.00  0.32  0.00  0.08  0.00  0.08 99.90 15.00 127.1   0.1  56.6  0.93  0.94  0.97
 1975  33    93    88   4.5  16.4   1.0  0.00  0.78  0.86  0.00  0.09  0.00  0.08 -0.00  0.00  0.55  0.00  0.08  0.00  0.08 99.90 15.00 125.3   0.0  56.1  0.93  0.95  0.97
 1975  34    94    89   4.8  16.4   1.1  0.00  0.77  0.85  0.00  0.05  0.00  0.08 -0.00  0.00  0.52  0.00  0.08  0.00  0.08 99.90 15.00 119.6   0.0  54.9  0.94  0.95  0.98
 1975  35    95    90   3.5  16.5   0.8  0.00  0.77  0.90  0.00  0.31  0.00  0.07 -0.00  0.00  0.65  0.00  0.07  0.00  0.07 99.90 15.00 117.0   0.0  54.3  0.94  0.96  0.98
 1975  36    96    91   3.5  16.5   0.8  0.00  0.76  0.90  0.00  0.31  0.00  0.07 -0.00  0.00  0.65  0.00  0.07  0.00  0.07 99.90 15.00 115.9   0.1  54.1  0.95  0.96  0.98
 1975  37    97    92   2.5  16.5   0.6  0.00  0.75  0.94  0.00  0.50  0.00  0.06 -0.00  0.00  0.75  0.00  0.06  0.00  0.06 99.90 15.00 116.0   0.1  54.1  0.95  0.96  0.98
 1975  38    98    93   4.9  16.6   1.3  0.00  0.74  0.84  0.00  0.02  0.00  0.06 -0.00  0.00  0.51  0.00  0.06  0.00  0.06 99.90 11.27 116.1   0.1  54.1  0.95  0.96  0.97
 1975  39    99    94   3.6  16.6   1.0  0.00  0.73  0.90  0.00  0.28  0.00  0.06 -0.00  0.00  0.64  0.00  0.06  0.00  0.06 99.90 14.28 116.1   0.1  54.0  0.95  0.96  0.97
 1975  40   100    95   2.6  16.6   0.7  0.00  0.73  0.93  0.00  0.47  0.00  0.06 -0.00  0.00  0.74  0.00  0.06  0.00  0.06 99.90  9.73 115.8   0.1  54.0  0.95  0.97  0.98
 1975  41   101    96   2.9  16.7   0.8  0.00  0.72  0.92  0.00  0.42  0.00  0.05 -0.00  0.00  0.71  0.00  0.05  0.00  0.05 99.90 15.00 117.9   0.0  53.9  0.96  0.97  0.98
 1975  42   102    97   4.6  21.0   1.3  0.00  0.71  0.86  0.00  0.09  0.00  0.05 -0.00  0.00  0.54  0.00  0.05  0.00  0.05 99.90 15.00 122.7   0.0  53.9  0.96  0.97  0.98
 1975  43   103    98   7.6  21.0   2.3  0.00  0.70  0.73  0.00  0.00  0.00  0.05 -0.00  0.00  0.24  0.00  0.05  0.00  0.05 99.90 15.00 124.8   0.1  53.8  0.93  0.96  0.98
 1975  44   104    99   6.6  21.1   2.0  0.00  0.69  0.78  0.00  0.00  0.00  0.08 -0.00  0.00  0.34  0.00  0.08  0.00  0.08 99.90 15.00 125.8   0.1  53.7  0.92  0.95  0.97
 1975  45   105   100   3.0  21.1   1.0  0.00  0.68  0.92  0.00  0.40  0.00  0.09 -0.00  0.00  0.70  0.00  0.09  0.00  0.09 99.90 15.00 138.0   0.1  53.5  0.92  0.95  0.97
 1975  46   106   101   2.4  21.1   0.8  0.00  0.67  0.94  0.00  0.52  0.00  0.09 -0.00  0.00  0.76  0.00  0.09  0.00  0.09 99.90 15.00 136.3   0.0  53.4  0.93  0.96  0.97
 1975  47   107   102   3.5  21.1   1.2  0.00  0.67  0.90  0.00  0.29  0.00  0.08 -0.00  0.00  0.64  0.00  0.08  0.00  0.08 99.90 15.00 134.9   0.1  53.3  0.93  0.96  0.98
 1975  48   108   103   5.7  21.1   1.9  0.00  0.66  0.81  0.00  0.00  0.00  0.08 -0.00  0.00  0.44  0.00  0.08  0.00  0.08 99.90 15.00 135.4   0.0  53.0  0.92  0.96  0.97
 1975  49   109   104   4.9  21.2   1.7  0.00  0.65  0.84  0.00  0.02  0.00  0.09 -0.00  0.00  0.51  0.00  0.09  0.00  0.09 99.90 15.00 140.7   0.1  52.7  0.92  0.96  0.97
 1975  50   110   105   4.4  21.2   1.6  0.00  0.64  0.86  0.00  0.12  0.00  0.09 -0.00  0.00  0.56  0.00  0.09  0.00  0.09 99.90  8.23 137.9   0.2  52.3  0.92  0.95  0.96
 1975  51   111   106   4.2  21.2   1.6  0.00  0.63  0.87  0.00  0.15  0.00  0.09 -0.00  0.00  0.57  0.00  0.09  0.00  0.09 99.90  7.97 129.5   0.2  51.0  0.92  0.95  0.95
 1975  52   112   107   3.4  21.2   1.3  0.00  0.62  0.90  0.00  0.31  0.00  0.09 -0.00  0.00  0.66  0.00  0.09  0.00  0.09 99.90  8.51 125.5   0.2  50.3  0.93  0.95  0.96
 1975  53   113   108   4.1  21.2   1.6  0.00  0.61  0.88  0.00  0.18  0.00  0.08 -0.00  0.00  0.59  0.00  0.08  0.00  0.08 99.90  8.94 124.8   0.2  50.2  0.93  0.95  0.95
 1975  54   114   109   5.1  21.3   2.0  0.00  0.61  0.83  0.00  0.00  0.00  0.08 -0.00  0.00  0.49  0.00  0.08  0.00  0.08 99.90  9.58 124.6   0.2  50.1  0.92  0.94  0.94
 1975  55   115   110   5.0  21.3   2.0  0.00  0.60  0.84  0.00  0.01  0.00  0.09 -0.00  0.00  0.50  0.00  0.09  0.00  0.09 99.90  7.31 124.1   0.3  50.0  0.92  0.93  0.93
 1975  56   116   111   2.4  21.3   1.0  0.00  0.59  0.95  0.00  0.53  0.00  0.09 -0.00  0.00  0.76  0.00  0.09  0.00  0.09 99.90 15.00 124.2   0.1  49.9  0.92  0.93  0.94
 1975  57   117   112   5.1  21.3   2.1  0.00  0.58  0.84  0.00  0.00  0.00  0.09 -0.00  0.00  0.49  0.00  0.09  0.00  0.09 99.90  8.47 123.9   0.2  49.9  0.92  0.92  0.93
 1975  58   118   113   3.7  21.3   1.6  0.00  0.57  0.89  0.00  0.27  0.00  0.10 -0.00  0.00  0.63  0.00  0.10  0.00  0.10 99.90  6.43 123.0   0.3  49.8  0.92  0.93  0.94
 1975  59   119   114   4.6  21.3   2.0  0.00  0.56  0.86  0.00  0.08  0.00  0.09 -0.00  0.00  0.54  0.00  0.09  0.00  0.09 99.90  7.92 122.5   0.3  49.7  0.92  0.93  0.93
 1975  60   120   115   7.0  21.4   3.1  0.00  0.55  0.76  0.00  0.00  0.00  0.09 -0.00  0.00  0.30  0.00  0.09  0.00  0.09 99.90 15.00 122.7   0.1  49.5  0.91  0.91  0.93
 1975  61   121   116   7.3  21.4   3.3  0.00  0.54  0.75  0.00  0.00  0.00  0.11 -0.00  0.00  0.27  0.00  0.11  0.00  0.11 99.90 15.00 126.7   0.1  49.4  0.89  0.89  0.92
 1975  62   122   117   8.8  21.5   4.1  0.00  0.54  0.69  0.00  0.00  0.00  0.12 -0.00  0.00  0.12  0.00  0.12  0.00  0.12 99.90 15.00 127.4   0.1  49.3  0.87  0.87  0.92
 1975  63   123   118   6.8  21.5   3.2  0.00  0.53  0.77  0.00  0.00  0.00  0.15 -0.00  0.00  0.32  0.00  0.15  0.00  0.15 99.90 10.90 134.1   0.2  49.2  0.86  0.87  0.91
 1975  64   124   119   6.1  21.6   2.9  0.00  0.52  0.80  0.00  0.00  0.00  0.16 -0.00  0.00  0.39  0.00  0.16  0.00  0.16 99.90 15.00 134.7   0.1  49.0  0.87  0.87  0.92
 1975  65   125   120   6.9  21.6   3.4  0.00  0.51  0.76  0.00  0.00  0.00  0.15 -0.00  0.00  0.31  0.00  0.15  0.00  0.15 99.90 15.00 140.5   0.1  48.9  0.86  0.87  0.91
 1975  66   126   121   7.1  21.7   3.5  0.00  0.50  0.76  0.00  0.00  0.00  0.16 -0.00  0.00  0.29  0.00  0.16  0.00  0.16 99.90 15.00 148.3   0.1  48.8  0.86  0.87  0.91
 1975  67   127   122   4.5  21.7   2.3  0.00  0.49  0.86  0.00  0.10  0.00  0.16 -0.00  0.00  0.55  0.00  0.16  0.00  0.16 99.90 15.00 155.9   0.1  48.6  0.87  0.88  0.92
 1975  68   128   123   4.8  21.7   2.4  0.00  0.49  0.85  0.00  0.05  0.00  0.15 -0.00  0.00  0.52  0.00  0.15  0.00  0.15 99.90 15.00 153.5   0.1  48.2  0.87  0.88  0.92
 1975  69   129   124   3.2  21.7   1.7  0.00  0.48  0.91  0.00  0.35  0.00  0.15 -0.00  0.00  0.68  0.00  0.15  0.00  0.15 99.90 15.00 150.8   0.1  47.8  0.88  0.89  0.92
 1975  70   130   125   4.0  21.8   2.1  0.00  0.47  0.88  0.00  0.20  0.00  0.14 -0.00  0.00  0.60  0.00  0.14  0.00  0.14 99.90 15.00 155.3   0.1  47.4  0.88  0.90  0.92
 1975  71   131   126   4.8  21.8   2.6  0.00  0.46  0.85  0.00  0.04  0.00  0.13 -0.00  0.00  0.52  0.00  0.13  0.00  0.13 99.90 15.00 156.5   0.0  46.9  0.89  0.90  0.93
 1975  72   132   127   3.7  21.8   2.0  0.00  0.45  0.89  0.00  0.26  0.00  0.13 -0.00  0.00  0.63  0.00  0.13  0.00  0.13 99.90 15.00 159.1   0.0  46.3  0.90  0.91  0.93
 1975  73   133   128   3.0  21.8   1.7  0.00  0.44  0.92  0.00  0.39  0.00  0.12 -0.00  0.00  0.69  0.00  0.12  0.00  0.12 99.90 15.00 156.1   0.1  45.7  0.90  0.92  0.94
 1975  74   134   129   2.6  21.9   1.5  0.00  0.44  0.94  0.00  0.48  0.00  0.11 -0.00  0.00  0.74  0.00  0.11  0.00  0.11 99.90 15.00 154.3   0.1  45.1  0.91  0.93  0.94
 1975  75   135   130   3.0  21.9   1.7  0.00  0.43  0.92  0.00  0.41  0.00  0.10 -0.00  0.00  0.70  0.00  0.10  0.00  0.10 99.90  9.56 151.1   0.3  44.6  0.91  0.93  0.94
 1975  76   136   131   2.1  21.9   1.2  0.00  0.42  0.95  0.00  0.57  0.00  0.10 -0.00  0.00  0.79  0.00  0.10  0.00  0.10 99.90  8.04 143.0   0.4  43.1  0.92  0.94  0.94
 1975  77   137   132   2.0  21.9   1.2  0.00  0.41  0.96  0.00  0.59  0.00  0.09 -0.00  0.00  0.80  0.00  0.09  0.00  0.09 99.90  7.30 141.5   0.4  42.9  0.92  0.94  0.95
 1975  78   138   133   1.5  21.9   0.9  0.00  0.40  0.98  0.00  0.71  0.00  0.09 -0.00  0.00  0.86  0.00  0.09  0.00  0.09 99.90 15.00 140.8   0.1  42.6  0.93  0.95  0.95
 1975  79   139   134   2.5  21.9   1.5  0.00  0.40  0.94  0.00  0.49  0.00  0.08 -0.00  0.00  0.75  0.00  0.08  0.00  0.08 99.90 15.00 140.5   0.0  42.5  0.93  0.95  0.95
 1975  80   140   135   4.8  22.0   3.0  0.00  0.39  0.85  0.00  0.03  0.00  0.08 -0.00  0.00  0.51  0.00  0.08  0.00  0.08 99.90 15.00 149.6   0.1  42.3  0.93  0.94  0.95
 1975  81   141   136   4.6  22.0   2.8  0.00  0.38  0.86  0.00  0.09  0.00  0.08 -0.00  0.00  0.54  0.00  0.08  0.00  0.08 99.90 14.51 149.5   0.2  42.1  0.93  0.94  0.95
 1975  82   142   137   5.9  22.0   3.7  0.00  0.37  0.80  0.00  0.00  0.00  0.09 -0.00  0.00  0.41  0.00  0.09  0.00  0.09 99.90 10.49 148.4   0.3  41.9  0.91  0.91  0.94
 1975  83   143   138   5.8  22.1   3.7  0.00  0.36  0.81  0.00  0.00  0.00  0.10 -0.00  0.00  0.43  0.00  0.10  0.00  0.10 99.90  9.29 143.8   0.3  41.3  0.89  0.88  0.93
 1975  84   144   139   4.6  22.1   3.0  0.00  0.36  0.85  0.00  0.07  0.00  0.12 -0.00  0.00  0.54  0.00  0.12  0.00  0.12 99.90  8.58 141.5   0.4  41.0  0.89  0.87  0.93
 1975  85   145   140   5.2  22.1   3.4  0.00  0.35  0.83  0.00  0.00  0.00  0.13 -0.00  0.00  0.48  0.00  0.13  0.00  0.13 99.90 15.00 147.0   0.1  40.9  0.88  0.86  0.92
 1975  86   146   141   2.2  22.2   1.4  0.00  0.34  0.95  0.00  0.56  0.00  0.13 -0.00  0.00  0.78  0.00  0.13  0.00  0.13 99.90 15.00 153.6   0.2  40.8  0.89  0.87  0.93
 1975  87   147   142   1.4  22.2   1.0  0.00  0.33  0.98  0.00  0.71  0.00  0.13 -0.00  0.00  0.86  0.00  0.13  0.00  0.13 99.90  5.96 151.4   0.6  40.7  0.89  0.87  0.93
 1975  88   148   143   2.8  22.2   1.8  0.00  0.33  0.93  0.00  0.45  0.00  0.12 -0.00  0.00  0.73  0.00  0.12  0.00  0.12 99.90  9.63 151.2   0.4  40.6  0.90  0.88  0.93
 1975  89   149   144   2.1  22.2   1.4  0.00  0.32  0.96  0.00  0.58  0.00  0.12 -0.00  0.00  0.79  0.00  0.12  0.00  0.12 99.90 11.56 152.0   0.3  40.4  0.90  0.89  0.94
 1975  90   150   145   3.4  22.2   2.3  0.00  0.31  0.91  0.00  0.33  0.00  0.11 -0.00  0.00  0.66  0.00  0.11  0.00  0.11 99.90  9.16 150.7   0.4  40.2  0.91  0.89  0.93
 1975  91   151   146   4.2  22.2   2.9  0.00  0.31  0.87  0.00  0.17  0.00  0.11 -0.00  0.00  0.58  0.00  0.11  0.00  0.11 99.90 10.16 152.6   0.4  40.0  0.90  0.88  0.93
 1975  92   152   147   4.9  22.3   3.4  0.00  0.30  0.84  0.00  0.02  0.00  0.11 -0.00  0.00  0.51  0.00  0.11  0.00  0.11 99.90 11.22 152.6   0.4  39.8  0.89  0.87  0.92
 1975  93   153   148   2.5  22.3   1.8  0.00  0.29  0.94  0.00  0.50  0.00  0.12 -0.00  0.00  0.75  0.00  0.12  0.00  0.12 99.90 13.31 156.3   0.3  39.6  0.90  0.88  0.93
 1975  94   154   149   2.5  22.3   1.8  0.00  0.28  0.94  0.00  0.50  0.00  0.11 -0.00  0.00  0.75  0.00  0.11  0.00  0.11 99.90 11.16 154.9   0.4  39.4  0.91  0.89  0.93
 1975  95   155   150   1.9  22.3   1.3  0.00  0.28  0.97  0.00  0.63  0.00  0.11 -0.00  0.00  0.81  0.00  0.11  0.00  0.11 99.90 14.89 158.2   0.3  39.2  0.91  0.90  0.93
 1975  96   156   151   3.4  22.3   2.5  0.00  0.27  0.90  0.00  0.31  0.00  0.10 -0.00  0.00  0.66  0.00  0.10  0.00  0.10 99.90  9.93 156.1   0.4  39.0  0.91  0.90  0.93
 1975  97   157   152   4.1  22.4   3.0  0.00  0.26  0.88  0.00  0.18  0.00  0.10 -0.00  0.00  0.59  0.00  0.10  0.00  0.10 99.90 12.84 156.8   0.3  38.7  0.91  0.89  0.93
 1975  98   158   153   3.2  22.4   2.4  0.00  0.26  0.91  0.00  0.36  0.00  0.10 -0.00  0.00  0.68  0.00  0.10  0.00  0.10 99.90  7.63 158.9   0.6  38.5  0.91  0.90  0.92
 1975  99   159   154   1.6  22.4   1.2  0.00  0.25  0.97  0.00  0.67  0.00  0.10 -0.00  0.00  0.84  0.00  0.10  0.00  0.10 99.90  8.87 156.5   0.5  38.2  0.92  0.91  0.93
 1975 100   160   155   2.9  22.4   2.2  0.00  0.24  0.92  0.00  0.42  0.00  0.09 -0.00  0.00  0.71  0.00  0.09  0.00  0.09 99.90 10.15 156.1   0.5  38.0  0.92  0.91  0.93
 1975 101   161   156   6.6  22.5   5.0  0.00  0.24  0.78  0.00  0.00  0.00  0.09 -0.00  0.00  0.34  0.00  0.09  0.00  0.09 99.90 14.43 154.9   0.3  37.8  0.90  0.87  0.92
 1975 102   162   157  10.3  22.5   7.9  0.00  0.23  0.63  0.00  0.00  0.00  0.12 -0.00  0.00  0.00  0.00  0.12  0.00  0.12 99.90  8.30 150.7   0.6  37.1  0.83  0.78  0.92
 1975 103   163   158   9.9  22.6   7.7  0.00  0.23  0.64  0.00  0.00  0.00  0.19 -0.00  0.00  0.00  0.00  0.19  0.00  0.19 99.90  9.48 151.6   0.5  37.0  0.79  0.73  0.91
 1975 104   164   159  10.1  22.7   7.8  0.00  0.22  0.64  0.00  0.00  0.00  0.24 -0.00  0.00  0.00  0.00  0.24  0.00  0.24 99.90 15.00 156.8   0.3  36.9  0.76  0.72  0.91
 1975 105   165   160   9.0  22.7   7.1  0.00  0.21  0.68  0.00  0.00  0.00  0.28 -0.00  0.00  0.10  0.00  0.28  0.00  0.28 99.90 15.00 158.8   0.4  36.8  0.74  0.70  0.91
 1975 106   166   161   8.4  22.8   6.7  0.00  0.21  0.70  0.00  0.00  0.00  0.30 -0.00  0.00  0.16  0.00  0.30  0.00  0.30 99.90  6.92 161.0   0.8  36.7  0.72  0.67  0.90
 1975 107   167   162   9.8  22.8   7.8  0.00  0.20  0.65  0.00  0.00  0.00  0.32 -0.00  0.00  0.02  0.00  0.32  0.00  0.32 99.90 15.00 161.8   0.3  36.7  0.70  0.67  0.90
 1975 108   168   163  12.4  22.9  10.0  0.00  0.20  0.54  0.00  0.00  0.00  0.34 -0.00  0.00  0.00  0.00  0.34  0.00  0.34 99.90  6.35 171.3   0.9  36.5  0.67  0.62  0.90
 1975 109   169   164  11.4  22.9   9.2  0.00  0.19  0.59  0.00  0.00  0.00  0.38 -0.00  0.00  0.00  0.00  0.38  0.00  0.38 99.90  8.40 163.7   0.7  35.6  0.65  0.60  0.90
 1975 110   170   165   8.9  23.0   7.3  0.00  0.19  0.68  0.00  0.00  0.00  0.40 -0.00  0.00  0.11  0.00  0.40  0.00  0.40 99.90  6.21 159.7   1.0  35.2  0.63  0.57  0.89
 1975 111   171   166  11.0  23.0   9.1  0.00  0.18  0.60  0.00  0.00  0.00  0.42 -0.00  0.00  0.00  0.00  0.42  0.00  0.42 99.90  7.47 158.8   0.8  35.1  0.61  0.55  0.89
 1975 112   172   167  12.8  23.1  10.6  0.00  0.17  0.53  0.00  0.00  0.00  0.45 -0.00  0.00  0.00  0.00  0.45  0.00  0.45 99.90  4.93 157.3   1.3  35.0  0.58  0.51  0.88
 1975 113   173   168  11.8  23.1   9.8  0.00  0.17  0.57  0.00  0.00  0.00  0.49 -0.00  0.00  0.00  0.00  0.49  0.00  0.49 99.90  7.48 156.6   0.9  35.0  0.56  0.50  0.88
 1975 114   174   169  11.9  23.1  10.0  0.00  0.16  0.56  0.00  0.00  0.00  0.50 -0.00  0.00  0.00  0.00  0.50  0.00  0.50 99.90  4.49 155.3   1.5  34.9  0.54  0.47  0.88
 1975 115   175   170  11.6  23.2   9.8  0.00  0.16  0.57  0.00  0.00  0.00  0.53 -0.00  0.00  0.00  0.00  0.53  0.00  0.53 99.90  9.61 156.0   0.8  34.8  0.53  0.47  0.87
 1975 116   176   171  13.9  23.2  11.8  0.00  0.15  0.48  0.00  0.00  0.00  0.54 -0.00  0.00  0.00  0.00  0.54  0.00  0.54 99.90  7.36 155.6   1.0  34.8  0.51  0.47  0.87
 1975 117   177   172  10.6  23.3   9.0  0.00  0.15  0.62  0.00  0.00  0.00  0.56 -0.00  0.00  0.00  0.00  0.56  0.00  0.56 99.90 15.00 156.4   0.2  34.7  0.51  0.48  0.87
 1975 118   178   173  13.8  23.3  11.9  0.00  0.14  0.49  0.00  0.00  0.00  0.57 -0.00  0.00  0.00  0.00  0.57  0.00  0.57 99.90  6.11 155.9   1.2  34.7  0.49  0.47  0.87
 1975 119   179   174   9.6  23.3   8.3  0.00  0.14  0.66  0.00  0.00  0.00  0.59 -0.00  0.00  0.04  0.00  0.59  0.00  0.59 99.90  7.22 155.6   1.1  34.7  0.48  0.46  0.87
 1975 120   180   175   7.9  23.4   6.9  0.00  0.13  0.72  0.00  0.00  0.00  0.60 -0.00  0.00  0.21  0.00  0.60  0.00  0.60 99.90  5.79 155.7   1.4  34.6  0.48  0.45  0.87
 1975 121   181   176  10.1  23.4   8.7  0.00  0.13  0.64  0.00  0.00  0.00  0.60 -0.00  0.00  0.00  0.00  0.60  0.00  0.60 99.90 10.78 155.4   0.8  34.5  0.47  0.46  0.86
 1975 122   182   177  12.7  23.4  11.1  0.00  0.13  0.53  0.00  0.00  0.00  0.61 -0.00  0.00  0.00  0.00  0.61  0.00  0.61 99.90  7.43 159.7   1.1  34.4  0.47  0.46  0.86
 1975 123   183   178   7.3  23.5   6.4  0.00  0.12  0.75  0.00  0.00  0.00  0.61 -0.00  0.00  0.27  0.00  0.61  0.00  0.61 99.90  5.90 157.9   1.4  34.3  0.47  0.47  0.86
 1975 124   184   179   7.5  23.5   6.7  0.00  0.12  0.74  0.00  0.00  0.00  0.61 -0.00  0.00  0.25  0.00  0.61  0.00  0.61 97.00  5.39 156.1   1.6  34.3  0.48  0.48  0.86
 1975 125   185   180   8.2  23.5   7.3  0.00  0.11  0.71  0.00  0.00  0.00  0.60 -0.00  0.00  0.18  0.00  0.60  0.00  0.60 99.90  6.37 154.8   1.4  34.1  0.48  0.48  0.86
 1975 126   186   181   9.5  23.5   8.5  0.00  0.11  0.66  0.00  0.00  0.00  0.60 -0.00  0.00  0.05  0.00  0.60  0.00  0.60 99.90  6.03 153.5   1.5  34.0  0.48  0.47  0.85
 1975 127   187   182  10.6  23.5  10.6  0.00  0.00  0.62  0.00  0.00  0.00  0.60 -0.00  0.00  0.00  0.00  0.60  0.00  0.60 99.90 12.17 165.9   0.8  33.9  0.47  0.47  0.85
 1975 128   188   183  12.2  23.5  12.2  0.00  0.00  0.55  0.00  0.00  0.00  0.62 -0.00  0.00  0.00  0.00  0.62  0.00  0.62 98.86  5.74 164.3   1.7  33.8  0.46  0.45  0.85
 1975 129   189   184  10.3  23.5  10.3  0.00  0.00  0.63  0.00  0.00  0.00  0.62 -0.00  0.00  0.00  0.00  0.62  0.00  0.62 99.90  6.15 162.6   1.6  33.7  0.45  0.44  0.85
 1975 130   190   185  11.0  23.5  11.0  0.00  0.00  0.60  0.00  0.00  0.00  0.63 -0.00  0.00  0.00  0.00  0.63  0.00  0.63 99.29  6.15 161.3   1.6  33.6  0.45  0.43  0.85
 1975 131   191   186   9.2  23.5   9.2  0.00  0.00  0.67  0.00  0.00  0.00  0.64 -0.00  0.00  0.07  0.00  0.64  0.00  0.64 99.90  9.73 160.4   1.0  33.5  0.45  0.43  0.85
 1975 132   192   187   7.2  23.5   7.2  0.00  0.00  0.75  0.00  0.00  0.00  0.64 -0.00  0.00  0.27  0.00  0.64  0.00  0.64 99.90 13.56 165.2   0.8  33.4  0.46  0.43  0.85
 1975 133   193   188  11.0  30.0  11.0  0.00  0.00  0.60  0.00  0.00  0.00  0.63 -0.00  0.00  0.00  0.00  0.63  0.00  0.63 99.90  9.24 165.5   1.1  33.2  0.45  0.43  0.85
 1975 134   194   189  10.1  30.5  10.1  0.00  0.00  0.63  0.00  0.00  0.00  0.64 -0.00  0.00  0.00  0.00  0.64  0.00  0.64 99.90 10.88 164.9   1.0  33.1  0.45  0.43  0.85
 1975 135   195   190   8.4  30.9   8.4  0.00  0.00  0.70  0.00  0.00  0.00  0.64 -0.00  0.00  0.16  0.00  0.64  0.00  0.64 99.90 15.00 165.2   0.5  33.0  0.45  0.43  0.85
 1975 136   196   191   6.9  31.2   6.9  0.00  0.00  0.76  0.00  0.00  0.00  0.63 -0.00  0.00  0.31  0.00  0.63  0.00  0.63 99.90 15.00 187.7   0.2  32.9  0.46  0.44  0.85
 1975 137   197   192   7.2  31.5   7.2  0.00  0.00  0.75  0.00  0.00  0.00  0.62 -0.00  0.00  0.28  0.00  0.62  0.00  0.62 99.90 15.00 203.5   0.1  32.8  0.48  0.46  0.85
 1975 138   198   193   8.4  31.8   8.4  0.00  0.00  0.71  0.00  0.00  0.00  0.60 -0.00  0.00  0.16  0.00  0.60  0.00  0.60 99.90 15.00 203.7   0.5  32.5  0.49  0.47  0.86
 1975 139   199   194  10.2  32.3  10.2  0.00  0.00  0.63  0.00  0.00  0.00  0.59 -0.00  0.00  0.00  0.00  0.59  0.00  0.59 77.26  4.28 197.2   2.6  31.9  0.48  0.43  0.85
 1975 140   200   195  11.8  32.8  11.8  0.00  0.00  0.57  0.00  0.00  0.00  0.60 -0.00  0.00  0.00  0.00  0.60  0.00  0.60 82.04  4.79 193.5   2.4  31.7  0.47  0.40  0.85
 1975 141   201   196  11.7  33.3  11.7  0.00  0.00  0.57  0.00  0.00  0.00  0.62 -0.00  0.00  0.00  0.00  0.62  0.00  0.62 83.22  5.06 190.8   2.3  31.5  0.47  0.39  0.85
 1975 142   202   197   7.8  33.7   7.8  0.00  0.00  0.73  0.00  0.00  0.00  0.62 -0.00  0.00  0.22  0.00  0.62  0.00  0.62 99.90 15.00 190.3   0.8  31.4  0.48  0.40  0.85
 1975 143   203   198   7.2  34.0   7.2  0.00  0.00  0.75  0.00  0.00  0.00  0.61 -0.00  0.00  0.27  0.00  0.61  0.00  0.61 99.90  8.14 188.6   1.5  31.3  0.48  0.40  0.85
 1975 144   204   199   6.1  34.3   6.1  0.00  0.00  0.80  0.00  0.00  0.00  0.61 -0.00  0.00  0.39  0.00  0.61  0.00  0.61 99.90 15.00 191.3   0.6  31.1  0.49  0.41  0.85
 1975 145   205   200   9.7  34.7   9.7  0.00  0.00  0.65  0.00  0.00  0.00  0.59 -0.00  0.00  0.03  0.00  0.59  0.00  0.59 99.90 10.17 190.8   1.2  31.0  0.49  0.41  0.85
 1975 146   206   201  11.8  35.2  11.8  0.00  0.00  0.57  0.00  0.00  0.00  0.59 -0.00  0.00  0.00  0.00  0.59  0.00  0.59 83.65  5.53 188.7   2.3  30.8  0.48  0.39  0.85
 1975 147   207   202  12.6  35.8  12.6  0.00  0.00  0.54  0.00  0.00  0.00  0.61 -0.00  0.00  0.00  0.00  0.61  0.00  0.61 93.55  6.39 187.1   2.0  30.7  0.48  0.38  0.85
 1975 148   208   203  14.4  36.4  14.4  0.00  0.00  0.46  0.00  0.00  0.00  0.61 -0.00  0.00  0.00  0.00  0.61  0.00  0.61 92.53  6.49 185.8   2.0  30.4  0.48  0.38  0.85
 1975 149   209   204   9.0  36.8   9.0  0.00  0.00  0.68  0.00  0.00  0.00  0.61 -0.00  0.00  0.10  0.00  0.61  0.00  0.61 99.90 15.00 185.8   0.7  30.3  0.50  0.39  0.85
 1975 150   210   205   7.7  37.2   7.7  0.00  0.00  0.73  0.00  0.00  0.00  0.60 -0.00  0.00  0.23  0.00  0.60  0.00  0.60 99.90 10.32 184.5   1.3  30.1  0.50  0.40  0.85
 1975 151   211   206   6.1  37.5   6.1  0.00  0.00  0.79  0.00  0.00  0.00  0.59 -0.00  0.00  0.39  0.00  0.59  0.00  0.59 99.90  8.00 182.7   1.7  30.0  0.50  0.39  0.85
 1975 152   212   207   7.6  37.8   7.6  0.00  0.00  0.74  0.00  0.00  0.00  0.59 -0.00  0.00  0.25  0.00  0.59  0.00  0.59 99.90  8.74 181.6   1.5  30.0  0.51  0.39  0.84
 1975 153   213   208   7.7  38.1   7.7  0.00  0.00  0.73  0.00  0.00  0.00  0.59 -0.00  0.00  0.23  0.00  0.59  0.00  0.59 99.90  7.82 185.7   1.6  29.8  0.50  0.37  0.84
 1975 154   214   209   7.5  38.5   7.5  0.00  0.00  0.74  0.00  0.00  0.00  0.59 -0.00  0.00  0.25  0.00  0.59  0.00  0.59 96.66  7.50 183.5   1.9  29.7  0.51  0.37  0.84
 1975 155   215   210   8.4  38.8   8.4  0.00  0.00  0.70  0.00  0.00  0.00  0.58 -0.00  0.00  0.16  0.00  0.58  0.00  0.58 99.90 10.88 183.7   1.3  29.5  0.51  0.37  0.84
 1975 156   216   211  12.5  39.4  12.5  0.00  0.00  0.54  0.00  0.00  0.00  0.58 -0.00  0.00  0.00  0.00  0.58  0.00  0.58 99.90  9.13 182.5   1.6  29.3  0.51  0.36  0.84
 1975 157   217   212  17.8  40.2  17.8  0.00  0.00  0.33  0.00  0.00  0.00  0.59 -0.00  0.00  0.00  0.00  0.59  0.00  0.59 56.15  4.63 180.5   3.2  29.3  0.50  0.34  0.84
 1975 158   218   213  18.0  41.1  18.0  0.00  0.00  0.32  0.00  0.00  0.00  0.60 -0.00  0.00  0.00  0.00  0.60  0.00  0.60 55.90  4.76 178.5   3.2  29.1  0.51  0.31  0.84
 1975 159   219   214  15.7  41.9  15.7  0.00  0.00  0.41  0.00  0.00  0.00  0.58 -0.00  0.00  0.00  0.00  0.58  0.00  0.58 56.22  4.95 176.5   3.1  29.1  0.53  0.31  0.84
 1975 160   220   215  15.9  42.7  15.9  0.00  0.00  0.41  0.00  0.00  0.00  0.57 -0.00  0.00  0.00  0.00  0.57  0.00  0.57 60.19  5.06 174.8   2.9  29.0  0.54  0.31  0.84
 1975 161   221   216  15.3  43.5  15.3  0.00  0.00  0.43  0.00  0.00  0.00  0.55 -0.00  0.00  0.00  0.00  0.55  0.00  0.55 61.22  5.21 173.2   2.8  28.9  0.56  0.33  0.84
 1975 162   222   217  16.9  44.3  16.9  0.00  0.00  0.37  0.00  0.00  0.00  0.53 -0.00  0.00  0.00  0.00  0.53  0.00  0.53 54.21  4.73 171.5   3.2  28.8  0.58  0.33  0.84
 1975 163   223   218  17.9  45.2  17.9  0.00  0.00  0.32  0.00  0.00  0.00  0.51 -0.00  0.00  0.00  0.00  0.51  0.00  0.51 56.56  5.00 170.1   3.0  28.7  0.60  0.35  0.84
 1975 164   224   219  18.0  46.1  18.0  0.00  0.00  0.32  0.00  0.00  0.00  0.49 -0.00  0.00  0.00  0.00  0.49  0.00  0.49 59.66  4.95 169.3   2.8  28.5  0.62  0.37  0.84
 1975 165   225   220  17.5  47.0  17.5  0.00  0.00  0.34  0.00  0.00  0.00  0.46 -0.00  0.00  0.00  0.00  0.46  0.00  0.46 99.90  8.21 169.6   1.7  28.4  0.64  0.41  0.85
 1975 166   226   221  14.9  47.7  14.9  0.00  0.00  0.44  0.00  0.00  0.00  0.43 -0.00  0.00  0.00  0.00  0.43  0.00  0.43 99.90  8.47 169.6   1.6  28.3  0.67  0.44  0.85
 1975 167   227   222  10.4  48.2  10.4  0.00  0.00  0.62  0.00  0.00  0.00  0.41 -0.00  0.00  0.00  0.00  0.41  0.00  0.41 99.90  8.96 173.3   1.4  28.1  0.69  0.47  0.85
 1975 168   228   223  13.8  48.9  13.8  0.00  0.00  0.49  0.00  0.00  0.00  0.38 -0.00  0.00  0.00  0.00  0.38  0.00  0.38 92.13  7.48 173.6   1.9  27.9  0.71  0.49  0.85
 1975 169   229   224  13.4  49.6  13.3  0.00  0.00  0.51  0.00  0.00  0.00  0.36 -0.00  0.00  0.00  0.00  0.36  0.00  0.36 77.23  6.10 170.4   2.2  27.7  0.73  0.51  0.85
 1975 170   230   225  15.5  51.4  15.5  0.00  0.00  0.42  0.00  0.00  0.00  0.34 -0.00  0.00  0.00  0.00  0.34  0.00  0.34 91.43  6.71 167.7   1.8  27.6  0.75  0.55  0.86
 1975 171   231   226  16.8  54.8  16.8  0.00  0.00  0.37  0.00  0.00  0.00  0.31 -0.00  0.00  0.00  0.00  0.31  0.00  0.31 67.07  4.77 164.5   2.5  27.3  0.76  0.56  0.86
 1975 172   232   227  17.5  58.3  17.5  0.00  0.00  0.34  0.00  0.00  0.00  0.29 -0.00  0.00  0.00  0.00  0.29  0.00  0.29 67.76  4.13 161.4   2.4  27.1  0.78  0.57  0.86
 1975 173   233   228  16.0  63.7  16.0  0.00  0.00  0.40  0.00  0.00  0.00  0.28 -0.00  0.00  0.00  0.00  0.28  0.00  0.28 64.01  3.65 158.3   2.5  27.0  0.79  0.59  0.86
 1975 174   234   229  13.8  70.1  13.8  0.00  0.00  0.49  0.00  0.00  0.00  0.26 -0.00  0.00  0.00  0.00  0.26  0.00  0.26 99.90  7.75 164.3   1.0  26.8  0.81  0.62  0.87
 1975 175   235   230  17.3  71.4  17.3  0.00  0.00  0.35  0.00  0.00  0.00  0.24 -0.00  0.00  0.00  0.00  0.24  0.00  0.24 57.94  3.42 160.3   2.8  26.6  0.82  0.63  0.87
 1975 176   236   231  14.4  72.5  14.4  0.00  0.00  0.47  0.00  0.00  0.00  0.22 -0.00  0.00  0.00  0.00  0.22  0.00  0.22 55.56  3.07 156.4   2.8  26.4  0.83  0.59  0.84
 1975 177   237   232  15.7  73.7  15.7  0.00  0.00  0.41  0.00  0.00  0.00  0.21 -0.00  0.00  0.00  0.00  0.21  0.00  0.21 62.15  3.26 153.1   2.5  26.2  0.78  0.60  0.82
 1975 178   238   233  14.1  74.8  14.1  0.00  0.00  0.47  0.00  0.00  0.00  0.27 -0.00  0.00  0.00  0.00  0.27  0.00  0.27 91.70  4.63 150.6   1.6  26.0  0.70  0.61  0.81
 1975 179   239   234  11.5  75.7  11.5  0.00  0.00  0.58  0.00  0.00  0.00  0.37 -0.00  0.00  0.00  0.00  0.37  0.00  0.37 99.90  5.73 148.8   1.1  25.8  0.64  0.62  0.80
 1975 180   240   235  12.2  76.6  12.2  0.00  0.00  0.55  0.00  0.00  0.00  0.46 -0.00  0.00  0.00  0.00  0.46  0.00  0.46 87.44  3.30 146.5   1.7  25.7  0.56  0.62  0.79
 1975 181   241   236  14.2  77.7  14.2  0.00  0.00  0.47  0.00  0.00  0.00  0.56 -0.00  0.00  0.00  0.00  0.56  0.00  0.56 72.22  2.57 143.9   2.0  25.4  0.49  0.63  0.78
 1975 182   242   237  14.9  78.9  14.9  0.00  0.00  0.45  0.00  0.00  0.00  0.65 -0.00  0.00  0.00  0.00  0.65  0.00  0.65 57.50  1.97 140.9   2.5  25.2  0.44  0.64  0.77
 1975 183   243   238  15.6  80.0  15.6  0.00  0.00  0.42  0.00  0.00  0.00  0.71 -0.00  0.00  0.00  0.00  0.71  0.00  0.71 53.62  1.77 138.1   2.6  25.1  0.40  0.65  0.77
 1975 184   244   239  14.9  80.3  14.9  0.00  0.00  0.42  0.00  0.00  0.00  0.77 -0.00  0.00  0.00  0.00  0.77  0.00  0.77 73.46  2.33 136.1   1.9  24.9  0.37  0.66  0.76
 1975 185   245   240  16.8  80.6  16.8  0.00  0.00  0.42  0.00  0.00  0.00  0.81 -0.00  0.00  0.00  0.00  0.81  0.00  0.81 99.90  3.82 134.9   1.1  24.7  0.35  0.66  0.76
 1975 186   246   241  14.1  80.9  14.1  0.00  0.00  0.42  0.00  0.00  0.00  0.85 -0.00  0.00  0.00  0.00  0.85  0.00  0.85 99.90  3.38 133.5   1.2  24.6  0.33  0.66  0.76
 1975 187   247   242  16.3  81.2  16.3  0.00  0.00  0.42  0.00  0.00  0.00  0.87 -0.00  0.00  0.00  0.00  0.87  0.00  0.87 57.20  1.76 131.1   2.3  24.4  0.31  0.67  0.76
 1975 188   248   243  17.0  81.5  17.0  0.00  0.00  0.42  0.00  0.00  0.00  0.90 -0.00  0.00  0.00  0.00  0.90  0.00  0.90 72.13  2.17 130.1   1.8  24.3  0.30  0.67  0.75
 1975 189   249   244  18.1  81.9  18.1  0.00  0.00  0.42  0.00  0.00  0.00  0.92 -0.00  0.00  0.00  0.00  0.92  0.00  0.92 79.88  2.44 128.0   1.6  24.2  0.29  0.68  0.75
 1975 190   250   245  17.5  82.2  17.5  0.00  0.00  0.42  0.00  0.00  0.00  0.93 -0.00  0.00  0.00  0.00  0.93  0.00  0.93 97.62  2.94 126.2   1.3  24.0  0.29  0.68  0.75
 1975 191   251   246  17.7  82.5  17.7  0.00  0.00  0.42  0.00  0.00  0.00  0.94 -0.00  0.00  0.00  0.00  0.94  0.00  0.94 92.99  2.79 124.6   1.3  23.9  0.28  0.69  0.75
 1975 192   252   247  18.2  82.9  18.2  0.00  0.00  0.42  0.00  0.00  0.00  0.95 -0.00  0.00  0.00  0.00  0.95  0.00  0.95 67.97  1.97 122.6   1.8  23.8  0.28  0.69  0.75
 1975 193   253   248  15.3  83.2  15.3  0.00  0.00  0.42  0.00  0.00  0.00  0.96 -0.00  0.00  0.00  0.00  0.96  0.00  0.96 99.90  3.96 124.0   0.8  23.7  0.28  0.69  0.75
 1975 194   254   249  19.0  83.5  19.0  0.00  0.00  0.42  0.00  0.00  0.00  0.97 -0.00  0.00  0.00  0.00  0.97  0.00  0.97 80.32  2.52 121.8   1.5  23.6  0.28  0.70  0.75
 1975 195   255   250  20.2  83.9  20.2  0.00  0.00  0.42  0.00  0.00  0.00  0.98 -0.00  0.00  0.02  0.00  0.98  0.00  0.98 72.18  1.79 120.0   1.7  23.5  0.28  0.71  0.75
 1975 196   256   251  17.6  84.2  17.6  0.00  0.00  0.42  0.00  0.00  0.00  0.98 -0.00  0.00  0.00  0.00  0.98  0.00  0.98 88.07  2.02 119.3   1.4  23.4  0.29  0.71  0.75
 1975 197   257   252  17.8  84.6  17.8  0.00  0.00  0.42  0.00  0.00  0.00  0.98 -0.00  0.00  0.00  0.00  0.98  0.00  0.98 84.54  2.11 117.2   1.4  23.3  0.29  0.72  0.75
 1975 198   258   253  18.5  84.9  18.5  0.00  0.00  0.42  0.00  0.00  0.00  0.99 -0.00  0.00  0.00  0.00  0.99  0.00  0.99 99.90  2.40 122.7   1.0  23.2  0.29  0.72  0.75
 1975 199   259   254  16.8  85.2  16.8  0.00  0.00  0.42  0.00  0.00  0.00  0.99 -0.00  0.00  0.00  0.00  0.99  0.00  0.99 95.14  3.25 120.4   1.3  23.2  0.30  0.73  0.75
 1975 200   260   255  16.2  85.5  16.2  0.00  0.00  0.42  0.00  0.00  0.00  0.99 -0.00  0.00  0.00  0.00  0.99  0.00  0.99 99.90  5.50 118.7   0.7  23.1  0.30  0.73  0.75
 1975 201   261   256  17.9  85.9  17.9  0.00  0.00  0.42  0.00  0.00  0.00  0.99 -0.00  0.00  0.00  0.00  0.99  0.00  0.99 99.90  5.21 117.0   0.8  23.0  0.31  0.74  0.75
 1975 202   262   257  15.8  86.2  15.7  0.00  0.00  0.42  0.00  0.00  0.00  0.99 -0.00  0.00  0.00  0.00  0.99  0.00  0.99 92.59  3.20 115.2   1.2  22.9  0.31  0.74  0.75
 1975 203   263   258  17.0  86.5  17.0  0.00  0.00  0.42  0.00  0.00  0.00  0.99 -0.00  0.00  0.00  0.00  0.99  0.00  0.99 99.90  4.86 113.9   0.8  22.8  0.32  0.75  0.75
 1975 204   264   259  17.2  86.8  17.2  0.00  0.00  0.42  0.00  0.00  0.00  1.00 -0.00  0.00  0.00  0.00  1.00  0.00  1.00 99.90  2.81 112.9   0.9  22.8  0.32  0.75  0.75
 1975 205   265   260  13.4  87.1  13.4  0.00  0.00  0.42  0.00  0.00  0.00  1.00 -0.00  0.00  0.00  0.00  1.00  0.00  1.00 99.90  2.65 112.9   0.9  22.7  0.33  0.76  0.75
 1975 206   266   261  13.9  87.3  13.9  0.00  0.00  0.42  0.00  0.00  0.00  1.00 -0.00  0.00  0.00  0.00  1.00  0.00  1.00 99.90  3.96 111.2   1.0  22.6  0.33  0.76  0.75
 1975 207   267   262  18.0  87.7  18.0  0.00  0.00  0.42  0.00  0.00  0.00  1.00 -0.00  0.00  0.00  0.00  1.00  0.00  1.00 87.87  1.77 109.4   1.2  22.5  0.34  0.77  0.75
 1975 208   268   263  19.2  88.0  19.2  0.00  0.00  0.42  0.00  0.00  0.00  1.00 -0.00  0.00  0.00  0.00  1.00  0.00  1.00 99.90  2.02 107.9   0.9  22.5  0.35  0.78  0.75
 1975 209   269   264  20.5  88.4  20.5  0.00  0.00  0.42  0.00  0.00  0.00  1.00 -0.00  0.00  0.04  0.00  1.00  0.00  1.00 88.62  1.50 106.2   1.2  22.4  0.36  0.78  0.75
 1975 210   270   265  20.9  88.8  20.9  0.00  0.00  0.42  0.00  0.00  0.00  1.00 -0.00  0.00  0.06  0.00  1.00  0.00  1.00 92.68  1.52 104.9   1.1  22.3  0.37  0.79  0.75
 1975 211   271   266  21.2  89.2  21.2  0.00  0.00  0.42  0.00  0.00  0.00  1.00 -0.00  0.00  0.08  0.00  1.00  0.00  1.00 99.90  1.65 103.8   1.0  22.3  0.38  0.80  0.75
 1975 212   272   267  20.2  89.6  20.2  0.00  0.00  0.42  0.00  0.00  0.00  1.00 -0.00  0.00  0.01  0.00  1.00  0.00  1.00 99.90  3.28 103.3   0.5  22.2  0.39  0.81  0.75
 1975 213   273   268  20.2  90.0  20.2  0.00  0.00  0.42  0.00  0.00  0.00  1.00 -0.00  0.00  0.01  0.00  1.00  0.00  1.00 99.90  2.08 102.5   0.8  22.2  0.40  0.81  0.75
 1975 214   274   269  19.3  90.9  19.3  0.00  0.00  0.42  0.00  0.00  0.00  1.00 -0.00  0.00  0.00  0.00  1.00  0.00  1.00 99.90  2.09 101.6   0.8  22.2  0.41  0.81  0.75

*DSSAT Cropping System Model Ver. 4.8.2.010 -develop  JUL 08, 2024 16:11:18

*RUN   2        : 30 KG N/HA                CSCER048 RORO7401    2
 MODEL          : CSCER048 - Wheat
 EXPERIMENT     : RORO7401 WH N RESPONSE,ROTHAMSTED  8FE(N)  (DSSAT3)
 DATA PATH      : C:\DSSAT48\Wheat\
 TREATMENT  2   : 30 KG N/HA                CSCER048
  
!........DATES.......  TEMP STAGE  ...PHENOLOGY....  .......PHOTOSYNTHESIS.......  .....GROWTH.....  ..TILLERS. WATER STRESS DETERMINANTS N STRESS DETERMINANTS       
@YEAR DOY   DAS   DAP TMEAN  GSTD    DU VRNFD DYLFD TFGEM  WFGE  TFPD  WFPD  NFPD CO2FD RSFPD  TFGD  WFGD  NFGD  WFTD  NFTD WAVRD WUPRD  SWXD  EOPD  SNXD LN%RD SN%RD RN%RD      
 1974 310     5     0   5.5   0.0   5.5  0.50  0.00  0.82  0.00  0.00  0.00  0.00 -0.00  0.00  0.45  0.00  0.00  0.00  0.00 99.90  1.00   6.9   0.0  78.5  0.00  0.00  0.00
 1974 311     6     1   7.6   3.3   3.8  0.50  0.00  0.74  0.00  0.00  0.00  0.00 -0.00  0.00  0.24  0.00  0.00  0.00  0.00 99.90  1.00   7.4   0.0  78.4  0.00  0.00  0.00
 1974 312     7     2   9.0   5.7   4.5  0.50  0.00  0.68  0.00  0.00  0.00  0.00 -0.00  0.00  0.10  0.00  0.00  0.00  0.00 99.90  1.00   7.2   0.0  78.3  0.00  0.00  0.00
 1974 313     8     3   9.9   7.1   4.9  0.49  0.00  0.64  0.00  0.00  0.00  0.00 -0.00  0.00  0.01  0.00  0.00  0.00  0.00 99.90  1.00  10.7   0.0  78.2  0.00  0.00  1.00
 1974 314     9     4   7.5   8.1   3.8  0.49  0.00  0.74  0.00  0.00  0.00  0.00 -0.00  0.00  0.25  0.00  0.00  0.00  0.00 99.90  1.00  12.8   0.0  78.0  0.00  0.00  1.00
 1974 315    10     5   7.3   9.1   3.8  0.48  0.00  0.75  0.00  0.00  0.00  0.00 -0.00  0.00  0.26  0.00  0.00  0.00  0.00 99.90  1.00  15.4   0.0  77.8  0.00  0.00  1.00
 1974 316    11     6   5.0   9.7   2.6  0.47  0.00  0.84  0.00  0.00  0.00  0.00 -0.00  0.00  0.50  0.00  0.00  0.00  0.00 99.90  1.00  15.8   0.0  77.6  0.00  0.00  1.00
 1974 317    12     7   6.0  10.0   3.2  0.46  0.00  0.80  0.00  0.00  0.00  0.00 -0.00  0.00  0.40  0.00  0.00  0.00  0.00 99.90  1.00  18.9   0.0  77.4  0.00  0.00  1.00
 1974 318    13     8   9.0  10.2   0.9  0.45  0.81  0.68  0.00  0.00  0.00  0.00 -0.00  0.00  0.10  0.00  0.00  0.00  0.00 99.90  1.00  21.6   0.0  77.3  1.00  0.00  1.00
 1974 319    14     9   8.2  10.3   0.8  0.44  0.82  0.71  0.00  0.00  0.00  0.00 -0.00  0.00  0.18  0.00  0.00  0.00  0.00 99.90 15.00  24.0   0.0  77.1  0.99  0.28  1.00
 1974 320    15    10   7.1  10.5   0.7  0.43  0.83  0.76  0.00  0.00  0.00  0.01 -0.00  0.00  0.29  0.00  0.01  0.00  0.01 99.90 15.00  25.9   0.0  76.9  1.00  0.35  1.00
 1974 321    16    11   5.6  10.6   0.5  0.42  0.83  0.81  0.00  0.00  0.00  0.00 -0.00  0.00  0.44  0.00  0.00  0.00  0.00 99.90 15.00  27.9   0.0  76.8  1.00  0.39  1.00
 1974 322    17    12   4.8  10.7   0.4  0.41  0.84  0.85  0.00  0.03  0.00  0.00 -0.00  0.00  0.51  0.00  0.00  0.00  0.00 99.90 15.00  29.4   0.0  76.4  1.00  0.45  1.00
 1974 323    18    13   4.4  10.8   0.4  0.40  0.85  0.86  0.00  0.12  0.00  0.00 -0.00  0.00  0.56  0.00  0.00  0.00  0.00 99.90 10.25  30.6   0.0  76.0  1.00  0.51  1.00
 1974 324    19    14   4.0  10.9   0.3  0.40  0.86  0.88  0.00  0.19  0.00  0.00 -0.00  0.00  0.60  0.00  0.00  0.00  0.00 99.90 15.00  32.1   0.0  75.6  1.00  0.55  1.00
 1974 325    20    15   7.0  11.0   0.6  0.39  0.86  0.76  0.00  0.00  0.00  0.00 -0.00  0.00  0.30  0.00  0.00  0.00  0.00 99.90 15.00  34.3   0.0  74.8  1.00  0.50  1.00
 1974 326    21    16   7.9  11.2   0.6  0.38  0.87  0.72  0.00  0.00  0.00  0.00 -0.00  0.00  0.21  0.00  0.00  0.00  0.00 99.90 15.00  34.3   0.0  74.3  1.00  0.43  1.00
 1974 327    22    17   8.2  11.3   0.6  0.37  0.88  0.71  0.00  0.00  0.00  0.00 -0.00  0.00  0.18  0.00  0.00  0.00  0.00 99.90 15.00  35.1   0.0  73.8  1.00  0.39  1.00
 1974 328    23    18   5.4  11.4   0.4  0.36  0.88  0.83  0.00  0.00  0.00  0.00 -0.00  0.00  0.46  0.00  0.00  0.00  0.00 99.90 15.00  36.7   0.0  73.3  1.00  0.42  1.00
 1974 329    24    19   5.6  11.5   0.4  0.35  0.89  0.82  0.00  0.00  0.00  0.00 -0.00  0.00  0.44  0.00  0.00  0.00  0.00 99.90  9.32  36.3   0.0  72.3  1.00  0.44  1.00
 1974 330    25    20   5.0  11.6   0.3  0.34  0.89  0.84  0.00  0.00  0.00  0.00 -0.00  0.00  0.50  0.00  0.00  0.00  0.00 99.90 15.00  37.3   0.0  72.1  1.00  0.45  1.00
 1974 331    26    21   4.6  11.7   0.3  0.33  0.90  0.86  0.00  0.09  0.00  0.00 -0.00  0.00  0.54  0.00  0.00  0.00  0.00 99.90 15.00  38.9   0.0  71.9  1.00  0.48  1.00
 1974 332    27    22   5.3  11.8   0.3  0.32  0.91  0.83  0.00  0.00  0.00  0.00 -0.00  0.00  0.47  0.00  0.00  0.00  0.00 99.90 15.00  41.5   0.0  71.7  1.00  0.48  1.00
 1974 333    28    23   6.9  12.0   0.4  0.31  0.91  0.76  0.00  0.00  0.00  0.00 -0.00  0.00  0.31  0.00  0.00  0.00  0.00 99.90 14.30  45.0   0.0  71.5  1.00  0.46  1.00
 1974 334    29    24   7.8  12.1   0.4  0.30  0.92  0.73  0.00  0.00  0.00  0.00 -0.00  0.00  0.23  0.00  0.00  0.00  0.00 99.90 15.00  44.4   0.0  71.1  1.00  0.45  1.00
 1974 335    30    25   8.7  12.2   0.5  0.30  0.92  0.69  0.00  0.00  0.00  0.00 -0.00  0.00  0.13  0.00  0.00  0.00  0.00 99.90 15.00  45.8   0.0  71.0  1.00  0.44  1.00
 1974 336    31    26  11.0  12.3   0.6  0.29  0.93  0.60  0.00  0.00  0.00  0.00 -0.00  0.00  0.00  0.00  0.00  0.00  0.00 99.90 15.00  46.9   0.0  70.8  1.00  0.41  1.00
 1974 337    32    27  11.1  12.4   0.5  0.29  0.93  0.60  0.00  0.00  0.00  0.00 -0.00  0.00  0.00  0.00  0.00  0.00  0.00 99.90 15.00  48.5   0.0  70.6  1.00  0.40  1.00
 1974 338    33    28  10.0  12.5   0.5  0.28  0.94  0.64  0.00  0.00  0.00  0.00 -0.00  0.00  0.00  0.00  0.00  0.00  0.00 99.90 12.52  50.2   0.0  70.5  0.98  0.39  1.00
 1974 339    34    29   6.2  12.5   0.3  0.27  0.94  0.79  0.00  0.00  0.00  0.02 -0.00  0.00  0.38  0.00  0.02  0.00  0.02 99.90 13.03  51.2   0.0  70.3  0.98  0.43  0.99
 1974 340    35    30   8.1  12.6   0.3  0.26  0.94  0.71  0.00  0.00  0.00  0.03 -0.00  0.00  0.19  0.00  0.03  0.00  0.03 99.90 15.00  52.6   0.0  70.2  0.96  0.45  0.98
 1974 341    36    31   9.4  12.7   0.4  0.26  0.95  0.66  0.00  0.00  0.00  0.04 -0.00  0.00  0.06  0.00  0.04  0.00  0.04 99.90 15.00  54.2   0.0  70.0  0.94  0.46  0.97
 1974 342    37    32   9.8  12.8   0.4  0.25  0.95  0.65  0.00  0.00  0.00  0.07 -0.00  0.00  0.02  0.00  0.07  0.00  0.07 99.90 15.00  56.5   0.0  69.8  0.91  0.47  0.96
 1974 343    38    33   7.5  12.9   0.3  0.24  0.95  0.74  0.00  0.00  0.00  0.10 -0.00  0.00  0.25  0.00  0.10  0.00  0.10 99.90 15.00  57.9   0.0  69.7  0.91  0.49  0.96
 1974 344    39    34   3.3  12.9   0.1  0.23  0.96  0.91  0.00  0.34  0.00  0.10 -0.00  0.00  0.67  0.00  0.10  0.00  0.10 99.90 15.00  65.2   0.0  69.6  0.91  0.52  0.96
 1974 345    40    35   2.2  12.9   0.1  0.22  0.96  0.95  0.00  0.56  0.00  0.10 -0.00  0.00  0.78  0.00  0.10  0.00  0.10 99.90 15.00  67.3   0.0  69.5  0.92  0.55  0.96
 1974 346    41    36   4.5  13.0   0.1  0.21  0.96  0.86  0.00  0.09  0.00  0.09 -0.00  0.00  0.55  0.00  0.09  0.00  0.09 99.90 15.00  70.3   0.0  69.4  0.92  0.58  0.97
 1974 347    42    37   3.6  13.0   0.1  0.20  0.97  0.90  0.00  0.29  0.00  0.09 -0.00  0.00  0.64  0.00  0.09  0.00  0.09 99.90 12.26  65.4   0.0  68.8  0.93  0.60  0.97
 1974 348    43    38   4.5  13.1   0.1  0.20  0.97  0.86  0.00  0.10  0.00  0.08 -0.00  0.00  0.55  0.00  0.08  0.00  0.08 99.90 15.00  65.2   0.0  68.8  0.93  0.63  0.97
 1974 349    44    39   4.9  13.1   0.1  0.19  0.97  0.84  0.00  0.02  0.00  0.08 -0.00  0.00  0.51  0.00  0.08  0.00  0.08 99.90 12.31  65.0   0.0  68.7  0.94  0.65  0.97
 1974 350    45    40   6.3  13.2   0.1  0.18  0.97  0.79  0.00  0.00  0.00  0.07 -0.00  0.00  0.37  0.00  0.07  0.00  0.07 99.90 15.00  67.3   0.0  68.6  0.93  0.66  0.97
 1974 351    46    41   4.8  13.2   0.1  0.17  0.97  0.85  0.00  0.05  0.00  0.08 -0.00  0.00  0.52  0.00  0.08  0.00  0.08 99.90 12.69  65.9   0.0  68.3  0.94  0.68  0.97
 1974 352    47    42   5.6  13.3   0.1  0.16  0.97  0.81  0.00  0.00  0.00  0.07 -0.00  0.00  0.44  0.00  0.07  0.00  0.07 99.90 15.00  66.6   0.0  68.2  0.94  0.70  0.97
 1974 353    48    43   6.5  13.3   0.1  0.15  0.97  0.78  0.00  0.00  0.00  0.07 -0.00  0.00  0.35  0.00  0.07  0.00  0.07 99.90 15.00  67.3   0.0  68.1  0.93  0.71  0.96
 1974 354    49    44   9.4  13.4   0.2  0.14  0.98  0.66  0.00  0.00  0.00  0.07 -0.00  0.00  0.06  0.00  0.07  0.00  0.07 99.90 15.00  68.9   0.0  68.0  0.91  0.70  0.96
 1974 355    50    45   9.4  13.5   0.2  0.13  0.98  0.66  0.00  0.00  0.00  0.10 -0.00  0.00  0.06  0.00  0.10  0.00  0.10 99.90 15.00  72.5   0.0  67.9  0.89  0.71  0.95
 1974 356    51    46  10.0  13.6   0.2  0.13  0.98  0.64  0.00  0.00  0.00  0.12 -0.00  0.00  0.00  0.00  0.12  0.00  0.12 99.90 15.00  75.6   0.0  67.8  0.87  0.71  0.94
 1974 357    52    47  10.2  13.7   0.2  0.12  0.98  0.63  0.00  0.00  0.00  0.14 -0.00  0.00  0.00  0.00  0.14  0.00  0.14 99.90 13.33  77.2   0.0  67.7  0.86  0.70  0.94
 1974 358    53    48   7.6  13.8   0.2  0.11  0.98  0.74  0.00  0.00  0.00  0.16 -0.00  0.00  0.24  0.00  0.16  0.00  0.16 99.90 15.00  78.5   0.0  67.6  0.86  0.71  0.94
 1974 359    54    49   6.9  13.9   0.2  0.11  0.97  0.76  0.00  0.00  0.00  0.16 -0.00  0.00  0.31  0.00  0.16  0.00  0.16 99.90 15.00  82.6   0.0  67.4  0.87  0.73  0.94
 1974 360    55    50   7.9  14.0   0.2  0.10  0.97  0.72  0.00  0.00  0.00  0.15 -0.00  0.00  0.21  0.00  0.15  0.00  0.15 99.90 15.00  91.4   0.0  67.3  0.87  0.73  0.94
 1974 361    56    51   9.8  14.1   0.2  0.09  0.97  0.65  0.00  0.00  0.00  0.15 -0.00  0.00  0.02  0.00  0.15  0.00  0.15 99.90 15.00  90.8   0.0  67.1  0.85  0.73  0.93
 1974 362    57    52  10.5  14.2   0.3  0.09  0.97  0.62  0.00  0.00  0.00  0.17 -0.00  0.00  0.00  0.00  0.17  0.00  0.17 99.90 15.00  90.4   0.0  67.0  0.84  0.73  0.93
 1974 363    58    53  10.4  14.3   0.3  0.08  0.97  0.62  0.00  0.00  0.00  0.18 -0.00  0.00  0.00  0.00  0.18  0.00  0.18 99.90 15.00  90.0   0.0  66.8  0.84  0.74  0.93
 1974 364    59    54   4.1  14.3   0.1  0.07  0.97  0.88  0.00  0.18  0.00  0.18 -0.00  0.00  0.59  0.00  0.18  0.00  0.18 99.90 12.63  86.5   0.1  66.0  0.85  0.76  0.93
 1974 365    60    55   5.0  14.4   0.2  0.06  0.97  0.84  0.00  0.00  0.00  0.17 -0.00  0.00  0.50  0.00  0.17  0.00  0.17 99.90 15.00  85.5   0.0  65.8  0.86  0.77  0.94
 1975   1    61    56   6.0  14.4   0.2  0.05  0.96  0.80  0.00  0.00  0.00  0.16 -0.00  0.00  0.40  0.00  0.16  0.00  0.16 99.90 15.00  87.5   0.0  65.7  0.87  0.79  0.94
 1975   2    62    57   7.5  14.5   0.3  0.04  0.96  0.74  0.00  0.00  0.00  0.15 -0.00  0.00  0.25  0.00  0.15  0.00  0.15 99.90 15.00  87.2   0.0  65.5  0.88  0.80  0.94
 1975   3    63    58   7.2  14.6   0.3  0.03  0.96  0.75  0.00  0.00  0.00  0.14 -0.00  0.00  0.27  0.00  0.14  0.00  0.14 99.90 15.00  88.0   0.0  65.4  0.89  0.81  0.95
 1975   4    64    59   4.0  14.6   0.2  0.02  0.95  0.88  0.00  0.20  0.00  0.13 -0.00  0.00  0.60  0.00  0.13  0.00  0.13 99.90 15.00  88.4   0.0  65.4  0.89  0.83  0.95
 1975   5    65    60   5.1  14.7   0.2  0.01  0.95  0.83  0.00  0.00  0.00  0.12 -0.00  0.00  0.49  0.00  0.12  0.00  0.12 99.90 15.00  89.1   0.0  65.3  0.90  0.84  0.95
 1975   6    66    61   8.4  14.7   0.4  0.01  0.95  0.70  0.00  0.00  0.00  0.11 -0.00  0.00  0.16  0.00  0.11  0.00  0.11 99.90 15.00  92.9   0.0  65.3  0.91  0.85  0.96
 1975   7    67    62   6.7  14.8   0.4  0.00  0.94  0.77  0.00  0.00  0.00  0.11 -0.00  0.00  0.33  0.00  0.11  0.00  0.11 99.90 15.00  93.7   0.0  65.2  0.91  0.86  0.96
 1975   8    68    63   6.9  14.9   0.4  0.00  0.94  0.76  0.00  0.00  0.00  0.10 -0.00  0.00  0.31  0.00  0.10  0.00  0.10 99.90 15.00  93.5   0.0  65.1  0.92  0.87  0.96
 1975   9    69    64   7.2  15.0   0.5  0.00  0.94  0.75  0.00  0.00  0.00  0.09 -0.00  0.00  0.28  0.00  0.09  0.00  0.09 99.90 15.00  94.5   0.0  65.0  0.92  0.87  0.96
 1975  10    70    65   8.1  15.0   0.6  0.00  0.93  0.72  0.00  0.00  0.00  0.09 -0.00  0.00  0.19  0.00  0.09  0.00  0.09 99.90 15.00  95.6   0.0  64.9  0.93  0.88  0.97
 1975  11    71    66   8.9  15.1   0.7  0.00  0.93  0.69  0.00  0.00  0.00  0.08 -0.00  0.00  0.11  0.00  0.08  0.00  0.08 99.90 15.00  96.9   0.0  64.8  0.93  0.89  0.97
 1975  12    72    67   7.9  15.2   0.6  0.00  0.92  0.73  0.00  0.00  0.00  0.08 -0.00  0.00  0.21  0.00  0.08  0.00  0.08 99.90 15.00 102.2   0.0  64.7  0.94  0.89  0.97
 1975  13    73    68   5.6  15.3   0.5  0.00  0.92  0.82  0.00  0.00  0.00  0.07 -0.00  0.00  0.44  0.00  0.07  0.00  0.07 99.90 15.00 100.5   0.0  64.4  0.94  0.90  0.97
 1975  14    74    69   7.8  15.3   0.7  0.00  0.91  0.73  0.00  0.00  0.00  0.07 -0.00  0.00  0.22  0.00  0.07  0.00  0.07 99.90 15.00 103.0   0.0  64.4  0.94  0.91  0.97
 1975  15    75    70   8.4  15.4   0.8  0.00  0.91  0.70  0.00  0.00  0.00  0.07 -0.00  0.00  0.16  0.00  0.07  0.00  0.07 99.90 12.11 106.7   0.1  64.3  0.94  0.91  0.97
 1975  16    76    71   4.8  15.5   0.5  0.00  0.90  0.85  0.00  0.04  0.00  0.07 -0.00  0.00  0.52  0.00  0.07  0.00  0.07 99.90 15.00 109.9   0.0  64.2  0.94  0.91  0.97
 1975  17    77    72   4.8  15.5   0.5  0.00  0.89  0.85  0.00  0.05  0.00  0.06 -0.00  0.00  0.52  0.00  0.06  0.00  0.06 99.90 15.00 112.9   0.0  64.1  0.95  0.92  0.97
 1975  18    78    73   2.5  15.5   0.3  0.00  0.89  0.94  0.00  0.51  0.00  0.06 -0.00  0.00  0.75  0.00  0.06  0.00  0.06 99.90 15.00 119.4   0.0  64.0  0.95  0.93  0.97
 1975  19    79    74   3.5  15.6   0.4  0.00  0.88  0.90  0.00  0.29  0.00  0.06 -0.00  0.00  0.64  0.00  0.06  0.00  0.06 99.90 11.67 122.7   0.1  63.9  0.95  0.93  0.98
 1975  20    80    75   3.9  15.6   0.5  0.00  0.88  0.88  0.00  0.22  0.00  0.05 -0.00  0.00  0.61  0.00  0.05  0.00  0.05 99.90 15.00 123.6   0.0  63.6  0.96  0.93  0.98
 1975  21    81    76   5.1  15.7   0.7  0.00  0.87  0.84  0.00  0.00  0.00  0.05 -0.00  0.00  0.50  0.00  0.05  0.00  0.05 99.90 10.90 124.0   0.1  63.1  0.96  0.94  0.98
 1975  22    82    77   6.4  15.7   0.9  0.00  0.86  0.78  0.00  0.00  0.00  0.05 -0.00  0.00  0.36  0.00  0.05  0.00  0.05 99.90 15.00 124.2   0.0  62.5  0.96  0.94  0.98
 1975  23    83    78   4.9  15.8   0.7  0.00  0.86  0.85  0.00  0.03  0.00  0.04 -0.00  0.00  0.51  0.00  0.04  0.00  0.04 99.90 15.00 122.1   0.1  62.0  0.96  0.95  0.98
 1975  24    84    79   6.5  15.8   1.0  0.00  0.85  0.78  0.00  0.00  0.00  0.04 -0.00  0.00  0.35  0.00  0.04  0.00  0.04 99.90 11.58 125.0   0.1  61.5  0.96  0.95  0.98
 1975  25    85    80   7.8  15.9   1.2  0.00  0.84  0.73  0.00  0.00  0.00  0.04 -0.00  0.00  0.22  0.00  0.04  0.00  0.04 99.90 15.00 123.9   0.1  60.9  0.96  0.95  0.98
 1975  26    86    81   4.7  16.0   0.8  0.00  0.84  0.85  0.00  0.06  0.00  0.05 -0.00  0.00  0.53  0.00  0.05  0.00  0.05 99.90 10.25 128.1   0.1  60.4  0.96  0.95  0.98
 1975  27    87    82   4.2  16.0   0.7  0.00  0.83  0.87  0.00  0.17  0.00  0.04 -0.00  0.00  0.58  0.00  0.04  0.00  0.04 99.90 15.00 129.1   0.0  59.8  0.96  0.95  0.98
 1975  28    88    83   4.1  16.0   0.7  0.00  0.82  0.88  0.00  0.18  0.00  0.04 -0.00  0.00  0.59  0.00  0.04  0.00  0.04 99.90 15.00 129.9   0.0  59.2  0.97  0.96  0.98
 1975  29    89    84   5.7  16.1   1.1  0.00  0.81  0.81  0.00  0.00  0.00  0.04 -0.00  0.00  0.44  0.00  0.04  0.00  0.04 99.90 15.00 128.7   0.0  58.5  0.97  0.96  0.98
 1975  30    90    85   7.8  16.2   1.5  0.00  0.81  0.73  0.00  0.00  0.00  0.04 -0.00  0.00  0.22  0.00  0.04  0.00  0.04 99.90 15.00 127.4   0.1  57.8  0.95  0.95  0.98
 1975  31    91    86   9.5  16.3   1.9  0.00  0.80  0.66  0.00  0.00  0.00  0.05 -0.00  0.00  0.05  0.00  0.05  0.00  0.05 99.90 15.00 129.1   0.0  57.1  0.93  0.94  0.97
 1975  32    92    87   6.8  16.3   1.4  0.00  0.79  0.77  0.00  0.00  0.00  0.08 -0.00  0.00  0.32  0.00  0.08  0.00  0.08 99.90 15.00 127.1   0.1  56.6  0.93  0.94  0.97
 1975  33    93    88   4.5  16.4   1.0  0.00  0.78  0.86  0.00  0.09  0.00  0.08 -0.00  0.00  0.55  0.00  0.08  0.00  0.08 99.90 15.00 125.3   0.0  56.1  0.93  0.95  0.97
 1975  34    94    89   4.8  16.4   1.1  0.00  0.77  0.85  0.00  0.05  0.00  0.08 -0.00  0.00  0.52  0.00  0.08  0.00  0.08 99.90 15.00 119.6   0.0  54.9  0.94  0.95  0.98
 1975  35    95    90   3.5  16.5   0.8  0.00  0.77  0.90  0.00  0.31  0.00  0.07 -0.00  0.00  0.65  0.00  0.07  0.00  0.07 99.90 15.00 117.0   0.0  54.3  0.94  0.96  0.98
 1975  36    96    91   3.5  16.5   0.8  0.00  0.76  0.90  0.00  0.31  0.00  0.07 -0.00  0.00  0.65  0.00  0.07  0.00  0.07 99.90 15.00 115.9   0.1  54.1  0.95  0.96  0.98
 1975  37    97    92   2.5  16.5   0.6  0.00  0.75  0.94  0.00  0.50  0.00  0.06 -0.00  0.00  0.75  0.00  0.06  0.00  0.06 99.90 15.00 116.0   0.1  54.1  0.95  0.96  0.98
 1975  38    98    93   4.9  16.6   1.3  0.00  0.74  0.84  0.00  0.02  0.00  0.06 -0.00  0.00  0.51  0.00  0.06  0.00  0.06 99.90 11.27 116.1   0.1  54.1  0.95  0.96  0.97
 1975  39    99    94   3.6  16.6   1.0  0.00  0.73  0.90  0.00  0.28  0.00  0.06 -0.00  0.00  0.64  0.00  0.06  0.00  0.06 99.90 14.28 116.1   0.1  54.0  0.95  0.96  0.97
 1975  40   100    95   2.6  16.6   0.7  0.00  0.73  0.93  0.00  0.47  0.00  0.06 -0.00  0.00  0.74  0.00  0.06  0.00  0.06 99.90  9.73 115.8   0.1  54.0  0.95  0.97  0.98
 1975  41   101    96   2.9  16.7   0.8  0.00  0.72  0.92  0.00  0.42  0.00  0.05 -0.00  0.00  0.71  0.00  0.05  0.00  0.05 99.90 15.00 117.9   0.0  53.9  0.96  0.97  0.98
 1975  42   102    97   4.6  21.0   1.3  0.00  0.71  0.86  0.00  0.09  0.00  0.05 -0.00  0.00  0.54  0.00  0.05  0.00  0.05 99.90 15.00 122.7   0.0  53.9  0.96  0.97  0.98
 1975  43   103    98   7.6  21.0   2.3  0.00  0.70  0.73  0.00  0.00  0.00  0.05 -0.00  0.00  0.24  0.00  0.05  0.00  0.05 99.90 15.00 124.8   0.1  53.8  0.93  0.96  0.98
 1975  44   104    99   6.6  21.1   2.0  0.00  0.69  0.78  0.00  0.00  0.00  0.08 -0.00  0.00  0.34  0.00  0.08  0.00  0.08 99.90 15.00 125.8   0.1  53.7  0.92  0.95  0.97
 1975  45   105   100   3.0  21.1   1.0  0.00  0.68  0.92  0.00  0.40  0.00  0.09 -0.00  0.00  0.70  0.00  0.09  0.00  0.09 99.90 15.00 138.0   0.1  53.5  0.92  0.95  0.97
 1975  46   106   101   2.4  21.1   0.8  0.00  0.67  0.94  0.00  0.52  0.00  0.09 -0.00  0.00  0.76  0.00  0.09  0.00  0.09 99.90 15.00 136.3   0.0  53.4  0.93  0.96  0.97
 1975  47   107   102   3.5  21.1   1.2  0.00  0.67  0.90  0.00  0.29  0.00  0.08 -0.00  0.00  0.64  0.00  0.08  0.00  0.08 99.90 15.00 134.9   0.1  53.3  0.93  0.96  0.98
 1975  48   108   103   5.7  21.1   1.9  0.00  0.66  0.81  0.00  0.00  0.00  0.08 -0.00  0.00  0.44  0.00  0.08  0.00  0.08 99.90 15.00 135.4   0.0  53.0  0.92  0.96  0.97
 1975  49   109   104   4.9  21.2   1.7  0.00  0.65  0.84  0.00  0.02  0.00  0.09 -0.00  0.00  0.51  0.00  0.09  0.00  0.09 99.90 15.00 140.7   0.1  52.7  0.92  0.96  0.97
 1975  50   110   105   4.4  21.2   1.6  0.00  0.64  0.86  0.00  0.12  0.00  0.09 -0.00  0.00  0.56  0.00  0.09  0.00  0.09 99.90  8.23 137.9   0.2  52.3  0.92  0.95  0.96
 1975  51   111   106   4.2  21.2   1.6  0.00  0.63  0.87  0.00  0.15  0.00  0.09 -0.00  0.00  0.57  0.00  0.09  0.00  0.09 99.90  7.97 129.5   0.2  51.0  0.92  0.95  0.95
 1975  52   112   107   3.4  21.2   1.3  0.00  0.62  0.90  0.00  0.31  0.00  0.09 -0.00  0.00  0.66  0.00  0.09  0.00  0.09 99.90  8.51 125.5   0.2  50.3  0.93  0.95  0.96
 1975  53   113   108   4.1  21.2   1.6  0.00  0.61  0.88  0.00  0.18  0.00  0.08 -0.00  0.00  0.59  0.00  0.08  0.00  0.08 99.90  8.94 124.8   0.2  50.2  0.93  0.95  0.95
 1975  54   114   109   5.1  21.3   2.0  0.00  0.61  0.83  0.00  0.00  0.00  0.08 -0.00  0.00  0.49  0.00  0.08  0.00  0.08 99.90  9.58 124.6   0.2  50.1  0.92  0.94  0.94
 1975  55   115   110   5.0  21.3   2.0  0.00  0.60  0.84  0.00  0.01  0.00  0.09 -0.00  0.00  0.50  0.00  0.09  0.00  0.09 99.90  7.31 124.1   0.3  50.0  0.92  0.93  0.93
 1975  56   116   111   2.4  21.3   1.0  0.00  0.59  0.95  0.00  0.53  0.00  0.09 -0.00  0.00  0.76  0.00  0.09  0.00  0.09 99.90 15.00 124.2   0.1  49.9  0.92  0.93  0.94
 1975  57   117   112   5.1  21.3   2.1  0.00  0.58  0.84  0.00  0.00  0.00  0.09 -0.00  0.00  0.49  0.00  0.09  0.00  0.09 99.90  8.47 123.9   0.2  49.9  0.92  0.92  0.93
 1975  58   118   113   3.7  21.3   1.6  0.00  0.57  0.89  0.00  0.27  0.00  0.10 -0.00  0.00  0.63  0.00  0.10  0.00  0.10 99.90  6.43 123.0   0.3  49.8  0.92  0.93  0.94
 1975  59   119   114   4.6  21.3   2.0  0.00  0.56  0.86  0.00  0.08  0.00  0.09 -0.00  0.00  0.54  0.00  0.09  0.00  0.09 99.90  7.92 122.5   0.3  49.7  0.92  0.93  0.93
 1975  60   120   115   7.0  21.4   3.1  0.00  0.55  0.76  0.00  0.00  0.00  0.09 -0.00  0.00  0.30  0.00  0.09  0.00  0.09 99.90 15.00 122.7   0.1  49.5  0.91  0.91  0.93
 1975  61   121   116   7.3  21.4   3.3  0.00  0.54  0.75  0.00  0.00  0.00  0.11 -0.00  0.00  0.27  0.00  0.11  0.00  0.11 99.90 15.00 126.7   0.1  49.4  0.89  0.89  0.92
 1975  62   122   117   8.8  21.5   4.1  0.00  0.54  0.69  0.00  0.00  0.00  0.12 -0.00  0.00  0.12  0.00  0.12  0.00  0.12 99.90 15.00 127.4   0.1  49.3  0.87  0.87  0.92
 1975  63   123   118   6.8  21.5   3.2  0.00  0.53  0.77  0.00  0.00  0.00  0.15 -0.00  0.00  0.32  0.00  0.15  0.00  0.15 99.90 10.90 134.1   0.2  49.2  0.86  0.87  0.91
 1975  64   124   119   6.1  21.6   2.9  0.00  0.52  0.80  0.00  0.00  0.00  0.16 -0.00  0.00  0.39  0.00  0.16  0.00  0.16 99.90 15.00 134.7   0.1  49.0  0.87  0.87  0.92
 1975  65   125   120   6.9  21.6   3.4  0.00  0.51  0.76  0.00  0.00  0.00  0.15 -0.00  0.00  0.31  0.00  0.15  0.00  0.15 99.90 15.00 140.5   0.1  48.9  0.86  0.87  0.91
 1975  66   126   121   7.1  21.7   3.5  0.00  0.50  0.76  0.00  0.00  0.00  0.16 -0.00  0.00  0.29  0.00  0.16  0.00  0.16 99.90 15.00 148.3   0.1  48.8  0.86  0.87  0.91
 1975  67   127   122   4.5  21.7   2.3  0.00  0.49  0.86  0.00  0.10  0.00  0.16 -0.00  0.00  0.55  0.00  0.16  0.00  0.16 99.90 15.00 155.9   0.1  48.6  0.87  0.88  0.92
 1975  68   128   123   4.8  21.7   2.4  0.00  0.49  0.85  0.00  0.05  0.00  0.15 -0.00  0.00  0.52  0.00  0.15  0.00  0.15 99.90 15.00 153.5   0.1  48.2  0.87  0.88  0.92
 1975  69   129   124   3.2  21.7   1.7  0.00  0.48  0.91  0.00  0.35  0.00  0.15 -0.00  0.00  0.68  0.00  0.15  0.00  0.15 99.90 15.00 150.8   0.1  47.8  0.88  0.89  0.92
 1975  70   130   125   4.0  21.8   2.1  0.00  0.47  0.88  0.00  0.20  0.00  0.14 -0.00  0.00  0.60  0.00  0.14  0.00  0.14 99.90 15.00 155.3   0.1  47.4  0.88  0.90  0.92
 1975  71   131   126   4.8  21.8   2.6  0.00  0.46  0.85  0.00  0.04  0.00  0.13 -0.00  0.00  0.52  0.00  0.13  0.00  0.13 99.90 15.00 156.5   0.0  46.9  0.89  0.90  0.93
 1975  72   132   127   3.7  21.8   2.0  0.00  0.45  0.89  0.00  0.26  0.00  0.13 -0.00  0.00  0.63  0.00  0.13  0.00  0.13 99.90 15.00 159.1   0.0  46.3  0.90  0.91  0.93
 1975  73   133   128   3.0  21.8   1.7  0.00  0.44  0.92  0.00  0.39  0.00  0.12 -0.00  0.00  0.69  0.00  0.12  0.00  0.12 99.90 15.00 156.1   0.1  45.7  0.90  0.92  0.94
 1975  74   134   129   2.6  21.9   1.5  0.00  0.44  0.94  0.00  0.48  0.00  0.11 -0.00  0.00  0.74  0.00  0.11  0.00  0.11 99.90 15.00 154.3   0.1  45.1  0.91  0.93  0.94
 1975  75   135   130   3.0  21.9   1.7  0.00  0.43  0.92  0.00  0.41  0.00  0.10 -0.00  0.00  0.70  0.00  0.10  0.00  0.10 99.90  9.56 151.1   0.3  44.6  0.91  0.93  0.94
 1975  76   136   131   2.1  21.9   1.2  0.00  0.42  0.95  0.00  0.57  0.00  0.10 -0.00  0.00  0.79  0.00  0.10  0.00  0.10 99.90  8.04 143.0   0.4  43.1  0.92  0.94  0.94
 1975  77   137   132   2.0  21.9   1.2  0.00  0.41  0.96  0.00  0.59  0.00  0.09 -0.00  0.00  0.80  0.00  0.09  0.00  0.09 99.90  7.30 141.5   0.4  42.9  0.92  0.94  0.95
 1975  78   138   133   1.5  21.9   0.9  0.00  0.40  0.98  0.00  0.71  0.00  0.09 -0.00  0.00  0.86  0.00  0.09  0.00  0.09 99.90 15.00 140.8   0.1  42.6  0.93  0.95  0.95
 1975  79   139   134   2.5  21.9   1.5  0.00  0.40  0.94  0.00  0.49  0.00  0.08 -0.00  0.00  0.75  0.00  0.08  0.00  0.08 99.90 15.00 140.5   0.0  42.5  0.93  0.95  0.95
 1975  80   140   135   4.8  22.0   3.0  0.00  0.39  0.85  0.00  0.03  0.00  0.08 -0.00  0.00  0.51  0.00  0.08  0.00  0.08 99.90 15.00 149.6   0.1  42.3  0.93  0.94  0.95
 1975  81   141   136   4.6  22.0   2.8  0.00  0.38  0.86  0.00  0.09  0.00  0.08 -0.00  0.00  0.54  0.00  0.08  0.00  0.08 99.90 14.51 149.5   0.2  42.1  0.93  0.94  0.95
 1975  82   142   137   5.9  22.0   3.7  0.00  0.37  0.80  0.00  0.00  0.00  0.09 -0.00  0.00  0.41  0.00  0.09  0.00  0.09 99.90 10.49 148.4   0.3  41.9  0.91  0.91  0.94
 1975  83   143   138   5.8  22.1   3.7  0.00  0.36  0.81  0.00  0.00  0.00  0.10 -0.00  0.00  0.43  0.00  0.10  0.00  0.10 99.90  9.29 143.8   0.3  41.3  0.89  0.88  0.93
 1975  84   144   139   4.6  22.1   3.0  0.00  0.36  0.85  0.00  0.07  0.00  0.12 -0.00  0.00  0.54  0.00  0.12  0.00  0.12 99.90  8.58 141.5   0.4  41.0  0.89  0.87  0.93
 1975  85   145   140   5.2  22.1   3.4  0.00  0.35  0.83  0.00  0.00  0.00  0.13 -0.00  0.00  0.48  0.00  0.13  0.00  0.13 99.90 15.00 147.0   0.1  40.9  0.88  0.86  0.92
 1975  86   146   141   2.2  22.2   1.4  0.00  0.34  0.95  0.00  0.56  0.00  0.13 -0.00  0.00  0.78  0.00  0.13  0.00  0.13 99.90 15.00 153.6   0.2  40.8  0.89  0.87  0.93
 1975  87   147   142   1.4  22.2   1.0  0.00  0.33  0.98  0.00  0.71  0.00  0.13 -0.00  0.00  0.86  0.00  0.13  0.00  0.13 99.90  5.96 151.4   0.6  40.7  0.89  0.87  0.93
 1975  88   148   143   2.8  22.2   1.8  0.00  0.33  0.93  0.00  0.45  0.00  0.12 -0.00  0.00  0.73  0.00  0.12  0.00  0.12 99.90  9.63 151.2   0.4  40.6  0.90  0.88  0.93
 1975  89   149   144   2.1  22.2   1.4  0.00  0.32  0.96  0.00  0.58  0.00  0.12 -0.00  0.00  0.79  0.00  0.12  0.00  0.12 99.90 11.56 152.0   0.3  40.4  0.90  0.89  0.94
 1975  90   150   145   3.4  22.2   2.3  0.00  0.31  0.91  0.00  0.33  0.00  0.11 -0.00  0.00  0.66  0.00  0.11  0.00  0.11 99.90  9.16 150.7   0.4  40.2  0.91  0.89  0.93
 1975  91   151   146   4.2  22.2   2.9  0.00  0.31  0.87  0.00  0.17  0.00  0.11 -0.00  0.00  0.58  0.00  0.11  0.00  0.11 99.90 10.16 152.6   0.4  40.0  0.90  0.88  0.93
 1975  92   152   147   4.9  22.3   3.4  0.00  0.30  0.84  0.00  0.02  0.00  0.11 -0.00  0.00  0.51  0.00  0.11  0.00  0.11 99.90 11.22 152.6   0.4  39.8  0.89  0.87  0.92
 1975  93   153   148   2.5  22.3   1.8  0.00  0.29  0.94  0.00  0.50  0.00  0.12 -0.00  0.00  0.75  0.00  0.12  0.00  0.12 99.90 13.31 156.3   0.3  39.6  0.90  0.88  0.93
 1975  94   154   149   2.5  22.3   1.8  0.00  0.28  0.94  0.00  0.50  0.00  0.11 -0.00  0.00  0.75  0.00  0.11  0.00  0.11 99.90 11.16 154.9   0.4  39.4  0.91  0.89  0.93
 1975  95   155   150   1.9  22.3   1.3  0.00  0.28  0.97  0.00  0.63  0.00  0.11 -0.00  0.00  0.81  0.00  0.11  0.00  0.11 99.90 14.89 158.2   0.3  39.2  0.91  0.90  0.93
 1975  96   156   151   3.4  22.3   2.5  0.00  0.27  0.90  0.00  0.31  0.00  0.10 -0.00  0.00  0.66  0.00  0.10  0.00  0.10 99.90  9.93 156.1   0.4  39.0  0.91  0.90  0.93
 1975  97   157   152   4.1  22.4   3.0  0.00  0.26  0.88  0.00  0.18  0.00  0.10 -0.00  0.00  0.59  0.00  0.10  0.00  0.10 99.90 12.84 156.8   0.3  38.7  0.91  0.89  0.93
 1975  98   158   153   3.2  22.4   2.4  0.00  0.26  0.91  0.00  0.36  0.00  0.10 -0.00  0.00  0.68  0.00  0.10  0.00  0.10 99.90  7.63 158.9   0.6  38.5  0.91  0.90  0.92
 1975  99   159   154   1.6  22.4   1.2  0.00  0.25  0.97  0.00  0.67  0.00  0.10 -0.00  0.00  0.84  0.00  0.10  0.00  0.10 99.90  8.87 156.5   0.5  38.2  0.92  0.91  0.93
 1975 100   160   155   2.9  22.4   2.2  0.00  0.24  0.92  0.00  0.42  0.00  0.09 -0.00  0.00  0.71  0.00  0.09  0.00  0.09 99.90 10.15 156.1   0.5  38.0  0.92  0.91  0.93
 1975 101   161   156   6.6  22.5   5.0  0.00  0.24  0.78  0.00  0.00  0.00  0.09 -0.00  0.00  0.34  0.00  0.09  0.00  0.09 99.90 14.43 154.9   0.3  37.8  0.90  0.87  0.92
 1975 102   162   157  10.3  22.5   7.9  0.00  0.23  0.63  0.00  0.00  0.00  0.12 -0.00  0.00  0.00  0.00  0.12  0.00  0.12 99.90  8.30 150.7   0.6  37.1  0.83  0.78  0.92
 1975 103   163   158   9.9  22.6   7.7  0.00  0.23  0.64  0.00  0.00  0.00  0.19 -0.00  0.00  0.00  0.00  0.19  0.00  0.19 99.90  9.48 151.6   0.5  37.0  0.79  0.73  0.91
 1975 104   164   159  10.1  22.7   7.8  0.00  0.22  0.64  0.00  0.00  0.00  0.24 -0.00  0.00  0.00  0.00  0.24  0.00  0.24 99.90 15.00 156.8   0.3  36.9  0.76  0.72  0.91
 1975 105   165   160   9.0  22.7   7.1  0.00  0.21  0.68  0.00  0.00  0.00  0.28 -0.00  0.00  0.10  0.00  0.28  0.00  0.28 99.90 15.00 158.8   0.4  36.8  0.74  0.70  0.91
 1975 106   166   161   8.4  22.8   6.7  0.00  0.21  0.70  0.00  0.00  0.00  0.30 -0.00  0.00  0.16  0.00  0.30  0.00  0.30 99.90  6.92 161.0   0.8  36.7  0.72  0.67  0.90
 1975 107   167   162   9.8  22.8   7.8  0.00  0.20  0.65  0.00  0.00  0.00  0.32 -0.00  0.00  0.02  0.00  0.32  0.00  0.32 99.90 15.00 161.8   0.3  36.7  0.70  0.67  0.90
 1975 108   168   163  12.4  22.9  10.0  0.00  0.20  0.54  0.00  0.00  0.00  0.34 -0.00  0.00  0.00  0.00  0.34  0.00  0.34 99.90  6.35 171.3   0.9  66.5  0.74  0.73  0.91
 1975 109   169   164  11.4  22.9   9.2  0.00  0.19  0.59  0.00  0.00  0.00  0.30 -0.00  0.00  0.00  0.00  0.30  0.00  0.30 99.90  8.40 163.7   0.7  64.4  0.77  0.78  0.92
 1975 110   170   165   8.9  23.0   7.3  0.00  0.19  0.68  0.00  0.00  0.00  0.27 -0.00  0.00  0.11  0.00  0.27  0.00  0.27 99.90  6.19 159.7   1.0  62.9  0.79  0.82  0.93
 1975 111   171   166  11.0  23.0   9.1  0.00  0.18  0.60  0.00  0.00  0.00  0.24 -0.00  0.00  0.00  0.00  0.24  0.00  0.24 99.90  7.45 158.8   0.9  61.7  0.82  0.86  0.94
 1975 112   172   167  12.8  23.1  10.6  0.00  0.17  0.53  0.00  0.00  0.00  0.21 -0.00  0.00  0.00  0.00  0.21  0.00  0.21 99.90  4.89 157.3   1.4  60.3  0.85  0.90  0.94
 1975 113   173   168  11.8  23.2   9.8  0.00  0.17  0.57  0.00  0.00  0.00  0.17 -0.00  0.00  0.00  0.00  0.17  0.00  0.17 99.90  7.38 156.5   0.9  58.3  0.87  0.93  0.95
 1975 114   174   169  11.9  23.3  10.0  0.00  0.16  0.56  0.00  0.00  0.00  0.15 -0.00  0.00  0.00  0.00  0.15  0.00  0.15 94.47  4.40 155.2   1.6  56.6  0.89  0.96  0.95
 1975 115   175   170  11.6  23.3   9.8  0.00  0.16  0.57  0.00  0.00  0.00  0.12 -0.00  0.00  0.00  0.00  0.12  0.00  0.12 99.90  9.41 155.9   0.8  54.8  0.90  0.98  0.96
 1975 116   176   171  13.9  23.4  11.8  0.00  0.15  0.48  0.00  0.00  0.00  0.11 -0.00  0.00  0.00  0.00  0.11  0.00  0.11 99.90  7.15 155.4   1.1  53.3  0.90  0.98  0.95
 1975 117   177   172  10.6  23.5   9.0  0.00  0.15  0.62  0.00  0.00  0.00  0.12 -0.00  0.00  0.00  0.00  0.12  0.00  0.12 99.90 15.00 156.3   0.2  51.8  0.90  0.99  0.95
 1975 118   178   173  13.8  23.6  11.9  0.00  0.14  0.49  0.00  0.00  0.00  0.12 -0.00  0.00  0.00  0.00  0.12  0.00  0.12 99.90  5.83 155.6   1.4  50.9  0.86  0.95  0.95
 1975 119   179   174   9.6  23.7   8.3  0.00  0.14  0.66  0.00  0.00  0.00  0.16 -0.00  0.00  0.04  0.00  0.16  0.00  0.16 99.90  6.47 155.2   1.3  50.1  0.83  0.90  0.94
 1975 120   180   175   7.9  23.7   6.9  0.00  0.13  0.72  0.00  0.00  0.00  0.20 -0.00  0.00  0.21  0.00  0.20  0.00  0.20 95.48  4.68 155.1   1.6  49.6  0.82  0.87  0.93
 1975 121   181   176  10.1  23.8   8.7  0.00  0.13  0.64  0.00  0.00  0.00  0.21 -0.00  0.00  0.00  0.00  0.21  0.00  0.21 99.90 10.46 154.8   0.9  49.3  0.80  0.86  0.93
 1975 122   182   177  12.7  23.8  11.1  0.00  0.13  0.53  0.00  0.00  0.00  0.23 -0.00  0.00  0.00  0.00  0.23  0.00  0.23 99.90  5.80 159.0   1.4  48.7  0.77  0.83  0.92
 1975 123   183   178   7.3  23.9   6.4  0.00  0.12  0.75  0.00  0.00  0.00  0.27 -0.00  0.00  0.27  0.00  0.27  0.00  0.27 87.65  5.61 157.0   1.8  48.3  0.79  0.86  0.93
 1975 124   184   179   7.5  23.9   6.7  0.00  0.12  0.74  0.00  0.00  0.00  0.25 -0.00  0.00  0.25  0.00  0.25  0.00  0.25 75.55  5.14 154.8   2.0  47.1  0.80  0.89  0.94
 1975 125   185   180   8.2  24.0   7.3  0.00  0.11  0.71  0.00  0.00  0.00  0.23 -0.00  0.00  0.18  0.00  0.23  0.00  0.23 84.15  6.09 153.1   1.8  45.8  0.81  0.90  0.93
 1975 126   186   181   9.5  24.0   8.5  0.00  0.11  0.66  0.00  0.00  0.00  0.22 -0.00  0.00  0.05  0.00  0.22  0.00  0.22 76.11  4.78 151.5   2.0  44.8  0.79  0.86  0.92
 1975 127   187   182  10.6  24.0  10.6  0.00  0.00  0.62  0.00  0.00  0.00  0.24 -0.00  0.00  0.00  0.00  0.24  0.00  0.24 99.90  8.72 164.0   1.0  44.3  0.78  0.85  0.92
 1975 128   188   183  12.2  24.0  12.2  0.00  0.00  0.55  0.00  0.00  0.00  0.25 -0.00  0.00  0.00  0.00  0.25  0.00  0.25 74.12  5.64 162.3   2.2  43.7  0.81  0.88  0.93
[...]
 1975 100   160   155   2.9  22.4   2.2  0.00  0.24  0.92  0.00  0.42  0.00  0.09 -0.00  0.00  0.71  0.00  0.09  0.00  0.09 99.90 10.15 156.1   0.5  38.0  0.92  0.91  0.93
 1975 101   161   156   6.6  22.5   5.0  0.00  0.24  0.78  0.00  0.00  0.00  0.09 -0.00  0.00  0.34  0.00  0.09  0.00  0.09 99.90 14.43 154.9   0.3  37.8  0.90  0.87  0.92
 1975 102   162   157  10.3  22.5   7.9  0.00  0.23  0.63  0.00  0.00  0.00  0.12 -0.00  0.00  0.00  0.00  0.12  0.00  0.12 99.90  8.30 150.7   0.6  37.1  0.83  0.78  0.92
 1975 103   163   158   9.9  22.6   7.7  0.00  0.23  0.64  0.00  0.00  0.00  0.19 -0.00  0.00  0.00  0.00  0.19  0.00  0.19 99.90  9.48 151.6   0.5  37.0  0.79  0.73  0.91
 1975 104   164   159  10.1  22.7   7.8  0.00  0.22  0.64  0.00  0.00  0.00  0.24 -0.00  0.00  0.00  0.00  0.24  0.00  0.24 99.90 15.00 156.8   0.3  36.9  0.76  0.72  0.91
 1975 105   165   160   9.0  22.7   7.1  0.00  0.21  0.68  0.00  0.00  0.00  0.28 -0.00  0.00  0.10  0.00  0.28  0.00  0.28 99.90 15.00 158.8   0.4  36.8  0.74  0.70  0.91
 1975 106   166   161   8.4  22.8   6.7  0.00  0.21  0.70  0.00  0.00  0.00  0.30 -0.00  0.00  0.16  0.00  0.30  0.00  0.30 99.90  6.92 161.0   0.8  36.7  0.72  0.67  0.90
 1975 107   167   162   9.8  22.8   7.8  0.00  0.20  0.65  0.00  0.00  0.00  0.32 -0.00  0.00  0.02  0.00  0.32  0.00  0.32 99.90 15.00 161.8   0.3  36.7  0.70  0.67  0.90
 1975 108   168   163  12.4  22.9  10.0  0.00  0.20  0.54  0.00  0.00  0.00  0.34 -0.00  0.00  0.00  0.00  0.34  0.00  0.34 99.90  6.35 171.3   0.9 246.2  0.74  0.73  0.91
 1975 109   169   164  11.4  22.9   9.2  0.00  0.19  0.59  0.00  0.00  0.00  0.30 -0.00  0.00  0.00  0.00  0.30  0.00  0.30 99.90  8.40 163.7   0.7 243.7  0.77  0.78  0.92
 1975 110   170   165   8.9  23.0   7.3  0.00  0.19  0.68  0.00  0.00  0.00  0.27 -0.00  0.00  0.11  0.00  0.27  0.00  0.27 99.90  6.19 159.7   1.0 241.9  0.79  0.82  0.93
 1975 111   171   166  11.0  23.0   9.1  0.00  0.18  0.60  0.00  0.00  0.00  0.24 -0.00  0.00  0.00  0.00  0.24  0.00  0.24 99.90  7.45 158.8   0.9 240.4  0.82  0.86  0.94
 1975 112   172   167  12.8  23.1  10.6  0.00  0.17  0.53  0.00  0.00  0.00  0.21 -0.00  0.00  0.00  0.00  0.21  0.00  0.21 99.90  4.89 157.3   1.4 238.6  0.85  0.90  0.94
 1975 113   173   168  11.8  23.2   9.8  0.00  0.17  0.57  0.00  0.00  0.00  0.17 -0.00  0.00  0.00  0.00  0.17  0.00  0.17 99.90  7.38 156.5   0.9 236.4  0.87  0.93  0.95
 1975 114   174   169  11.9  23.3  10.0  0.00  0.16  0.56  0.00  0.00  0.00  0.15 -0.00  0.00  0.00  0.00  0.15  0.00  0.15 94.47  4.40 155.2   1.6 234.5  0.89  0.96  0.95
 1975 115   175   170  11.6  23.3   9.8  0.00  0.16  0.57  0.00  0.00  0.00  0.12 -0.00  0.00  0.00  0.00  0.12  0.00  0.12 99.90  9.41 155.9   0.8 232.5  0.91  0.99  0.96
 1975 116   176   171  13.9  23.4  11.8  0.00  0.15  0.48  0.00  0.00  0.00  0.10 -0.00  0.00  0.00  0.00  0.10  0.00  0.10 99.90  7.15 155.4   1.1 230.8  0.93  1.00  0.96
 1975 117   177   172  10.6  23.5   9.0  0.00  0.15  0.62  0.00  0.00  0.00  0.08 -0.00  0.00  0.00  0.00  0.08  0.00  0.08 99.90 15.00 156.3   0.2 228.7  0.94  1.00  0.97
 1975 118   178   173  13.8  23.6  11.9  0.00  0.14  0.49  0.00  0.00  0.00  0.07 -0.00  0.00  0.00  0.00  0.07  0.00  0.07 99.90  5.82 155.6   1.4 227.3  0.92  0.99  0.96
 1975 119   179   174   9.6  23.7   8.3  0.00  0.14  0.66  0.00  0.00  0.00  0.09 -0.00  0.00  0.04  0.00  0.09  0.00  0.09 99.90  6.45 155.2   1.3 225.7  0.91  0.96  0.95
 1975 120   180   175   7.9  23.7   6.9  0.00  0.13  0.72  0.00  0.00  0.00  0.11 -0.00  0.00  0.21  0.00  0.11  0.00  0.11 94.76  4.65 155.1   1.6 224.8  0.90  0.95  0.94
 1975 121   181   176  10.1  23.8   8.7  0.00  0.13  0.64  0.00  0.00  0.00  0.11 -0.00  0.00  0.00  0.00  0.11  0.00  0.11 99.90 10.45 154.7   0.9 224.0  0.89  0.95  0.94
 1975 122   182   177  12.7  23.9  11.1  0.00  0.13  0.53  0.00  0.00  0.00  0.12 -0.00  0.00  0.00  0.00  0.12  0.00  0.12 99.90  5.76 158.9   1.4 222.9  0.86  0.92  0.93
 1975 123   183   178   7.3  23.9   6.4  0.00  0.12  0.75  0.00  0.00  0.00  0.16 -0.00  0.00  0.27  0.00  0.16  0.00  0.16 86.23  5.59 156.9   1.8 222.1  0.87  0.94  0.94
 1975 124   184   179   7.5  24.0   6.7  0.00  0.12  0.74  0.00  0.00  0.00  0.15 -0.00  0.00  0.25  0.00  0.15  0.00  0.15 74.19  5.13 154.8   2.1 221.0  0.89  0.96  0.94
 1975 125   185   180   8.2  24.0   7.3  0.00  0.11  0.71  0.00  0.00  0.00  0.13 -0.00  0.00  0.18  0.00  0.13  0.00  0.13 82.52  6.11 153.0   1.9 219.6  0.90  0.98  0.95
 1975 126   186   181   9.5  24.1   8.5  0.00  0.11  0.66  0.00  0.00  0.00  0.12 -0.00  0.00  0.05  0.00  0.12  0.00  0.12 74.52  4.67 151.4   2.0 218.2  0.88  0.94  0.94
 1975 127   187   182  10.6  24.1  10.6  0.00  0.00  0.62  0.00  0.00  0.00  0.14 -0.00  0.00  0.00  0.00  0.14  0.00  0.14 99.90  8.44 163.9   1.0 217.4  0.89  0.95  0.95
 1975 128   188   183  12.2  24.1  12.2  0.00  0.00  0.55  0.00  0.00  0.00  0.13 -0.00  0.00  0.00  0.00  0.13  0.00  0.13 72.18  5.66 162.2   2.2 215.4  0.91  0.96  0.95
 1975 129   189   184  10.3  24.1  10.3  0.00  0.00  0.63  0.00  0.00  0.00  0.10 -0.00  0.00  0.00  0.00  0.10  0.00  0.10 73.69  6.11 160.4   2.2 212.4  0.93  0.98  0.96
 1975 130   190   185  11.0  24.1  11.0  0.00  0.00  0.60  0.00  0.00  0.00  0.08 -0.00  0.00  0.00  0.00  0.08  0.00  0.08 70.15  6.13 159.0   2.3 209.2  0.95  0.99  0.96
 1975 131   191   186   9.2  24.1   9.2  0.00  0.00  0.67  0.00  0.00  0.00  0.06 -0.00  0.00  0.07  0.00  0.06  0.00  0.06 99.90  9.75 158.1   1.5 205.9  0.96  0.99  0.97
 1975 132   192   187   7.2  24.1   7.2  0.00  0.00  0.75  0.00  0.00  0.00  0.05 -0.00  0.00  0.27  0.00  0.05  0.00  0.05 99.90 13.59 162.9   1.1 203.3  0.97  1.00  0.97
 1975 133   193   188  11.0  30.0  11.0  0.00  0.00  0.60  0.00  0.00  0.00  0.04 -0.00  0.00  0.00  0.00  0.04  0.00  0.04 99.60  9.29 163.2   1.6 201.7  0.98  1.00  0.97
 1975 134   194   189  10.1  30.5  10.1  0.00  0.00  0.63  0.00  0.00  0.00  0.02 -0.00  0.00  0.00  0.00  0.02  0.00  0.02 99.90 10.96 162.7   1.4 198.5  0.99  1.00  0.98
 1975 135   195   190   8.4  30.9   8.4  0.00  0.00  0.70  0.00  0.00  0.00  0.01 -0.00  0.00  0.16  0.00  0.01  0.00  0.01 99.90 15.00 163.0   0.7 195.9  1.00  1.00  0.98
 1975 136   196   191   6.9  31.2   6.9  0.00  0.00  0.76  0.00  0.00  0.00  0.00 -0.00  0.00  0.31  0.00  0.00  0.00  0.00 99.90 15.00 185.6   0.4 194.2  1.00  1.00  0.98
 1975 137   197   192   7.2  31.5   7.2  0.00  0.00  0.75  0.00  0.00  0.00  0.00 -0.00  0.00  0.28  0.00  0.00  0.00  0.00 99.90 15.00 201.2   0.2 193.2  1.00  1.00  0.98
 1975 138   198   193   8.4  31.8   8.4  0.00  0.00  0.71  0.00  0.00  0.00  0.00 -0.00  0.00  0.16  0.00  0.00  0.00  0.00 99.90 15.00 201.5   0.7 192.6  1.00  1.00  0.99
 1975 139   199   194  10.2  32.3  10.2  0.00  0.00  0.63  0.00  0.00  0.00  0.00 -0.00  0.00  0.00  0.00  0.00  0.00  0.00 49.79  4.20 196.6   3.9 191.3  1.00  1.00  0.99
 1975 140   200   195  11.8  32.8  11.8  0.00  0.00  0.57  0.00  0.00  0.00  0.00 -0.00  0.00  0.00  0.00  0.00  0.00  0.00 53.23  4.86 192.7   3.6 188.6  1.00  1.00  0.99
 1975 141   201   196  11.7  33.3  11.7  0.00  0.00  0.57  0.00  0.00  0.00  0.00 -0.00  0.00  0.00  0.00  0.00  0.00  0.00 53.45  5.20 190.0   3.6 185.4  1.00  1.00  0.99
 1975 142   202   197   7.8  33.7   7.8  0.00  0.00  0.73  0.00  0.00  0.00  0.00 -0.00  0.00  0.22  0.00  0.00  0.00  0.00 99.90 15.00 189.6   1.2 182.5  1.00  1.00  1.00
 1975 143   203   198   7.2  34.0   7.2  0.00  0.00  0.75  0.00  0.00  0.00  0.00 -0.00  0.00  0.27  0.00  0.00  0.00  0.00 80.63  8.45 187.7   2.3 181.8  1.00  1.00  1.00
 1975 144   204   199   6.1  34.3   6.1  0.00  0.00  0.80  0.00  0.00  0.00  0.00 -0.00  0.00  0.39  0.00  0.00  0.00  0.00 99.90 15.00 190.5   1.0 180.9  1.00  1.00  1.00
 1975 145   205   200   9.7  34.7   9.7  0.00  0.00  0.65  0.00  0.00  0.00  0.00 -0.00  0.00  0.03  0.00  0.00  0.00  0.00 97.84 10.60 190.1   1.9 180.6  1.00  1.00  1.00
 1975 146   206   201  11.8  35.2  11.8  0.00  0.00  0.57  0.00  0.00  0.00  0.00 -0.00  0.00  0.00  0.00  0.00  0.00  0.00 52.27  5.88 187.4   3.6 178.8  1.00  1.00  1.00
 1975 147   207   202  12.6  35.8  12.6  0.00  0.00  0.54  0.00  0.00  0.00  0.00 -0.00  0.00  0.00  0.00  0.00  0.00  0.00 58.97  6.97 185.4   3.1 176.6  1.00  1.00  1.00
 1975 148   208   203  14.4  36.4  14.4  0.00  0.00  0.46  0.00  0.00  0.00  0.00 -0.00  0.00  0.00  0.00  0.00  0.00  0.00 58.04  7.15 183.6   3.2 174.6  1.00  1.00  1.00
 1975 149   209   204   9.0  36.8   9.0  0.00  0.00  0.68  0.00  0.00  0.00  0.00 -0.00  0.00  0.10  0.00  0.00  0.00  0.00 99.90 15.00 183.7   1.1 172.2  1.00  1.00  1.00
 1975 150   210   205   7.7  37.2   7.7  0.00  0.00  0.73  0.00  0.00  0.00  0.00 -0.00  0.00  0.23  0.00  0.00  0.00  0.00 87.61 10.09 182.3   2.1 171.4  1.00  1.00  1.00
 1975 151   211   206   6.1  37.5   6.1  0.00  0.00  0.79  0.00  0.00  0.00  0.00 -0.00  0.00  0.39  0.00  0.00  0.00  0.00 66.20  7.04 180.0   2.7 170.2  1.00  1.00  1.00
 1975 152   212   207   7.6  37.8   7.6  0.00  0.00  0.74  0.00  0.00  0.00  0.00 -0.00  0.00  0.25  0.00  0.00  0.00  0.00 75.52  8.04 178.5   2.4 169.8  1.00  1.00  1.00
 1975 153   213   208   7.7  38.1   7.7  0.00  0.00  0.73  0.00  0.00  0.00  0.00 -0.00  0.00  0.23  0.00  0.00  0.00  0.00 69.45  7.40 182.4   2.6 169.0  1.00  1.00  1.00
 1975 154   214   209   7.5  38.5   7.5  0.00  0.00  0.74  0.00  0.00  0.00  0.00 -0.00  0.00  0.25  0.00  0.00  0.00  0.00 59.79  8.62 180.0   3.0 168.3  1.00  1.00  1.00
 1975 155   215   210   8.4  38.8   8.4  0.00  0.00  0.70  0.00  0.00  0.00  0.00 -0.00  0.00  0.16  0.00  0.00  0.00  0.00 85.37 12.63 180.3   2.1 167.6  1.00  1.00  1.00
 1975 156   216   211  12.5  39.4  12.5  0.00  0.00  0.54  0.00  0.00  0.00  0.00 -0.00  0.00  0.00  0.00  0.00  0.00  0.00 70.58 10.64 179.1   2.5 166.8  1.00  1.00  1.00
 1975 157   217   212  17.8  40.2  17.8  0.00  0.00  0.33  0.00  0.00  0.00  0.00 -0.00  0.00  0.00  0.00  0.00  0.00  0.00 34.90  4.83 175.8   5.0 165.2  1.00  1.00  1.00
 1975 158   218   213  18.0  41.1  18.0  0.00  0.00  0.32  0.00  0.00  0.00  0.00 -0.00  0.00  0.00  0.00  0.00  0.00  0.00 34.78  4.61 172.6   5.0 163.0  1.00  1.00  1.00
 1975 159   219   214  15.7  41.9  15.7  0.00  0.00  0.41  0.00  0.00  0.00  0.00 -0.00  0.00  0.00  0.00  0.00  0.00  0.00 34.39  3.86 169.2   4.9 163.2  1.00  1.00  1.00
 1975 160   220   215  15.9  42.7  15.9  0.00  0.00  0.41  0.00  0.00  0.00  0.00 -0.00  0.00  0.00  0.00  0.00  0.00  0.00 36.24  3.53 166.1   4.6 163.3  1.00  1.00  1.00
 1975 161   221   216  15.3  43.5  15.3  0.00  0.00  0.43  0.00  0.00  0.00  0.00 -0.00  0.00  0.00  0.00  0.00  0.00  0.00 36.28  2.66 163.1   4.5 163.5  1.00  1.00  1.00
 1975 162   222   217  16.9  44.3  16.9  0.00  0.00  0.37  0.00  0.00  0.00  0.00 -0.00  0.00  0.00  0.00  0.00  0.00  0.00 31.60  1.81 159.8   5.1 163.7  1.00  1.00  1.00
 1975 163   223   218  17.9  45.2  17.9  0.00  0.00  0.32  0.00  0.00  0.00  0.00 -0.00  0.00  0.00  0.00  0.00  0.00  0.00 32.46  1.63 157.0   4.8 163.9  1.00  1.00  1.00
 1975 164   224   219  18.0  46.1  18.0  0.00  0.00  0.32  0.00  0.00  0.00  0.00 -0.00  0.00  0.00  0.00  0.00  0.00  0.00 33.63  1.59 154.5   4.6 164.1  1.00  1.00  1.00
 1975 165   225   220  17.5  47.0  17.5  0.00  0.00  0.34  0.00  0.00  0.00  0.00 -0.00  0.00  0.00  0.00  0.00  0.00  0.00 56.40  2.26 153.8   2.7 164.3  1.00  1.00  1.00
 1975 166   226   221  14.9  47.7  14.9  0.00  0.00  0.44  0.00  0.00  0.00  0.00 -0.00  0.00  0.00  0.00  0.00  0.00  0.00 59.32  2.27 153.0   2.6 164.4  1.00  1.00  1.00
 1975 167   227   222  10.4  48.2  10.4  0.00  0.00  0.62  0.00  0.00  0.00  0.00 -0.00  0.00  0.00  0.00  0.00  0.00  0.00 66.47  2.41 156.0   2.3 164.6  1.00  1.00  1.00
 1975 168   228   223  13.8  48.9  13.8  0.00  0.00  0.49  0.00  0.00  0.00  0.00 -0.00  0.00  0.00  0.00  0.00  0.00  0.00 50.45  4.29 155.7   3.1 164.8  1.00  1.00  1.00
 1975 169   229   224  13.4  49.6  13.3  0.00  0.00  0.51  0.00  0.00  0.00  0.00 -0.00  0.00  0.00  0.00  0.00  0.00  0.00 41.91  3.58 151.6   3.6 164.9  1.00  1.00  1.00
 1975 170   230   225  15.5  51.4  15.5  0.00  0.00  0.42  0.00  0.00  0.00  0.00 -0.00  0.00  0.00  0.00  0.00  0.00  0.00 49.05  1.85 148.2   3.0 165.0  1.00  1.00  1.00
 1975 171   231   226  16.8  54.8  16.8  0.00  0.00  0.37  0.00  0.00  0.00  0.00 -0.00  0.00  0.00  0.20  0.00  0.00  0.00 35.35  1.04 143.6   4.1 165.1  1.00  1.00  1.00
 1975 172   232   227  17.5  58.3  17.5  0.00  0.00  0.34  0.00  0.00  0.10  0.00 -0.00  0.00  0.00  0.31  0.00  0.20  0.00 35.26  0.90 140.0   4.0 165.3  1.00  1.00  1.00
 1975 173   233   228  16.0  63.7  16.0  0.00  0.00  0.40  0.00  0.00  0.23  0.00 -0.00  0.00  0.00  0.41  0.00  0.46  0.00 32.98  0.77 136.7   4.1 165.4  1.00  1.00  1.00
 1975 174   234   229  13.8  70.1  13.8  0.00  0.00  0.49  0.00  0.00  0.00  0.00 -0.00  0.00  0.00  0.00  0.00  0.00  0.00 80.64  1.70 142.1   1.8 165.5  1.00  1.00  1.00
 1975 175   235   230  17.3  71.4  17.3  0.00  0.00  0.35  0.00  0.00  0.00  0.00 -0.00  0.00  0.00  0.00  0.00  0.00  0.00 29.63  2.47 136.8   4.6 165.7  1.00  1.00  1.00
 1975 176   236   231  14.4  72.5  14.4  0.00  0.00  0.47  0.00  0.00  0.00  0.00 -0.00  0.00  0.00  0.00  0.00  0.00  0.00 28.02  2.41 132.3   4.7 165.8  1.00  1.00  1.00
 1975 177   237   232  15.7  73.7  15.7  0.00  0.00  0.41  0.00  0.00  0.32  0.00 -0.00  0.00  0.00  0.48  0.00  0.64  0.00 31.21  0.68 129.5   4.2 166.0  1.00  1.00  1.00
 1975 178   238   233  14.1  74.8  14.1  0.00  0.00  0.47  0.00  0.00  0.05  0.00 -0.00  0.00  0.00  0.27  0.00  0.11  0.00 45.53  0.95 126.8   2.8 166.1  1.00  1.00  1.00
 1975 179   239   234  11.5  75.7  11.5  0.00  0.00  0.58  0.00  0.00  0.00  0.00 -0.00  0.00  0.00  0.00  0.00  0.00  0.00 66.08  1.35 124.9   1.9 166.2  1.00  1.00  0.98
 1975 180   240   235  12.2  76.6  12.2  0.00  0.00  0.55  0.00  0.00  0.12  0.00 -0.00  0.00  0.00  0.33  0.00  0.25  0.00 42.65  0.88 122.3   2.9 165.8  0.94  0.99  0.94
 1975 181   241   236  14.2  77.7  14.2  0.00  0.00  0.47  0.00  0.00  0.29  0.08 -0.00  0.00  0.00  0.46  0.08  0.59  0.08 35.00  0.71 119.8   3.4 165.3  0.80  0.96  0.90
 1975 182   242   237  14.9  78.9  14.9  0.00  0.00  0.45  0.00  0.00  0.52  0.26 -0.00  0.00  0.00  0.63  0.26  1.00  0.26 27.85  0.48 117.7   4.2 164.9  0.69  0.94  0.87
 1975 183   243   238  15.6  80.0  15.6  0.00  0.00  0.42  0.00  0.00  0.60  0.40 -0.00  0.00  0.00  0.69  0.40  1.00  0.40 25.78  0.40 115.9   4.5 164.6  0.60  0.93  0.85
 1975 184   244   239  14.9  80.3  14.9  0.00  0.00  0.42  0.00  0.00  0.50  0.51 -0.00  0.00  0.00  0.62  0.51  1.00  0.51 34.90  0.50 114.2   3.3 164.3  0.53  0.91  0.83
 1975 185   245   240  16.8  80.6  16.8  0.00  0.00  0.42  0.00  0.00  0.23  0.60 -0.00  0.00  0.00  0.41  0.60  0.45  0.60 57.64  0.77 112.7   2.0 164.0  0.48  0.89  0.81
 1975 186   246   241  14.1  80.9  14.1  0.00  0.00  0.42  0.00  0.00  0.38  0.67 -0.00  0.00  0.00  0.52  0.67  0.76  0.67 50.93  0.62 111.3   2.2 163.7  0.43  0.88  0.80
 1975 187   247   242  16.3  81.2  16.3  0.00  0.00  0.42  0.00  0.00  0.69  0.74 -0.00  0.00  0.00  0.76  0.74  1.00  0.74 26.44  0.31 110.0   4.2 163.5  0.40  0.87  0.79
 1975 188   248   243  17.0  81.5  17.0  0.00  0.00  0.42  0.00  0.00  0.63  0.78 -0.00  0.00  0.00  0.71  0.78  1.00  0.78 33.17  0.37 108.7   3.3 163.2  0.37  0.87  0.78
 1975 189   249   244  18.1  81.9  18.1  0.00  0.00  0.42  0.00  0.00  0.57  0.82 -0.00  0.00  0.00  0.67  0.82  1.00  0.82 37.08  0.43 107.5   2.9 163.0  0.35  0.87  0.77
 1975 190   250   245  17.5  82.2  17.5  0.00  0.00  0.42  0.00  0.00  0.52  0.86 -0.00  0.00  0.00  0.63  0.86  1.00  0.86 45.42  0.48 106.3   2.3 162.9  0.33  0.86  0.77
 1975 191   251   246  17.7  82.5  17.7  0.00  0.00  0.42  0.00  0.00  0.55  0.88 -0.00  0.00  0.00  0.66  0.88  1.00  0.88 43.40  0.45 105.2   2.4 162.7  0.32  0.86  0.77
 1975 192   252   247  18.2  82.9  18.2  0.00  0.00  0.42  0.00  0.00  0.68  0.90 -0.00  0.00  0.00  0.75  0.90  1.00  0.90 31.94  0.32 104.1   3.3 162.6  0.31  0.87  0.76
 1975 193   253   248  15.3  83.2  15.3  0.00  0.00  0.42  0.00  0.00  0.29  0.92 -0.00  0.00  0.00  0.46  0.92  0.59  0.92 72.70  0.71 104.8   1.4 162.4  0.31  0.87  0.76
 1975 194   254   249  19.0  83.5  19.0  0.00  0.00  0.42  0.00  0.00  0.01  0.94 -0.00  0.00  0.00  0.23  0.94  0.01  0.94 37.24  0.99 102.0   2.7 162.3  0.30  0.87  0.76
 1975 195   255   250  20.2  83.9  20.2  0.00  0.00  0.42  0.00  0.00  0.68  0.95 -0.00  0.00  0.02  0.75  0.95  1.00  0.95 33.45  0.32 101.1   3.0 161.5  0.30  0.88  0.76
 1975 196   256   251  17.6  84.2  17.6  0.00  0.00  0.42  0.00  0.00  0.58  0.96 -0.00  0.00  0.00  0.68  0.96  1.00  0.96 41.12  0.42 100.9   2.5 161.4  0.30  0.88  0.76
 1975 197   257   252  17.8  84.6  17.8  0.00  0.00  0.42  0.00  0.00  0.48  0.96 -0.00  0.00  0.00  0.60  0.96  0.96  0.96 39.68  0.52  99.2   2.5 161.3  0.30  0.89  0.75
 1975 198   258   253  18.5  84.9  18.5  0.00  0.00  0.42  0.00  0.00  0.46  0.97 -0.00  0.00  0.00  0.59  0.97  0.92  0.97 57.29  0.54 104.9   1.8 161.0  0.30  0.89  0.75
 1975 199   259   254  16.8  85.2  16.8  0.00  0.00  0.42  0.00  0.00  0.00  0.98 -0.00  0.00  0.00  0.00  0.98  0.00  0.98 45.46  4.18 101.7   2.2 161.0  0.30  0.90  0.75
 1975 200   260   255  16.2  85.5  16.2  0.00  0.00  0.42  0.00  0.00  0.00  0.98 -0.00  0.00  0.00  0.00  0.98  0.00  0.98 76.26  7.13  99.8   1.3 150.3  0.31  0.90  0.75
 1975 201   261   256  17.9  85.9  17.9  0.00  0.00  0.42  0.00  0.00  0.00  0.98 -0.00  0.00  0.00  0.00  0.98  0.00  0.98 71.17  3.28  97.9   1.4 146.9  0.31  0.91  0.75
 1975 202   262   257  15.8  86.2  15.7  0.00  0.00  0.42  0.00  0.00  0.53  0.99 -0.00  0.00  0.00  0.64  0.99  1.00  0.99 43.31  0.47  96.7   2.2 145.9  0.31  0.91  0.75
 1975 203   263   258  17.0  86.5  17.0  0.00  0.00  0.42  0.00  0.00  0.34  0.99 -0.00  0.00  0.00  0.49  0.99  0.67  0.99 66.31  0.66  95.6   1.4 145.8  0.32  0.92  0.75
 1975 204   264   259  17.2  86.8  17.2  0.00  0.00  0.42  0.00  0.00  0.46  0.99 -0.00  0.00  0.00  0.58  0.99  0.91  0.99 56.63  0.54  94.8   1.7 145.7  0.32  0.93  0.75
 1975 205   265   260  13.4  87.1  13.4  0.00  0.00  0.42  0.00  0.00  0.43  0.99 -0.00  0.00  0.00  0.56  0.99  0.85  0.99 59.19  0.57  95.1   1.6 145.6  0.33  0.93  0.75
 1975 206   266   261  13.9  87.3  13.9  0.00  0.00  0.42  0.00  0.00  0.05  0.99 -0.00  0.00  0.00  0.27  0.99  0.10  0.99 55.18  0.95  93.0   1.7 145.6  0.33  0.94  0.75
 1975 207   267   262  18.0  87.7  18.0  0.00  0.00  0.42  0.00  0.00  0.60  1.00 -0.00  0.00  0.00  0.69  1.00  1.00  1.00 41.45  0.40  92.1   2.2 145.2  0.34  0.95  0.75
 1975 208   268   263  19.2  88.0  19.2  0.00  0.00  0.42  0.00  0.00  0.53  1.00 -0.00  0.00  0.00  0.64  1.00  1.00  1.00 54.09  0.47  91.3   1.7 145.1  0.35  0.95  0.75
 1975 209   269   264  20.5  88.4  20.5  0.00  0.00  0.42  0.00  0.00  0.63  1.00 -0.00  0.00  0.04  0.72  1.00  1.00  1.00 42.42  0.37  90.5   2.1 145.1  0.36  0.96  0.75
 1975 210   270   265  20.9  88.8  20.9  0.00  0.00  0.42  0.00  0.00  0.61  1.00 -0.00  0.00  0.06  0.70  1.00  1.00  1.00 44.75  0.39  89.6   2.0 145.0  0.37  0.97  0.75
 1975 211   271   266  21.2  89.2  21.2  0.00  0.00  0.42  0.00  0.00  0.56  1.00 -0.00  0.00  0.08  0.67  1.00  1.00  1.00 50.40  0.44  88.8   1.8 145.0  0.38  0.98  0.75
 1975 212   272   267  20.2  89.6  20.2  0.00  0.00  0.42  0.00  0.00  0.11  1.00 -0.00  0.00  0.01  0.31  1.00  0.21  1.00 99.90  0.89  88.0   0.8 145.0  0.39  0.99  0.75
 1975 213   273   268  20.2  90.0  20.2  0.00  0.00  0.42  0.00  0.00  0.43  1.00 -0.00  0.00  0.01  0.56  1.00  0.86  1.00 66.15  0.57  87.2   1.3 145.0  0.40  1.00  0.75
 1975 214   274   269  19.3  90.9  19.3  0.00  0.00  0.42  0.00  0.00  0.40  1.00 -0.00  0.00  0.00  0.54  1.00  0.81  1.00 69.35  0.60  86.5   1.2 145.0  0.41  1.00  0.75
