$PLANT NITROGEN ASPECTS OUTPUT FILE

*DSSAT Cropping System Model Ver. 4.8.2.010 -develop  JUL 08, 2024 16:11:18

*RUN   1        : 0 KG N/HA                 CSCER048 RORO7401    1
 MODEL          : CSCER048 - Wheat
 EXPERIMENT     : RORO7401 WH N RESPONSE,ROTHAMSTED  8FE(N)  (DSSAT3)
 DATA PATH      : C:\DSSAT48\Wheat\
 TREATMENT  1   : 0 KG N/HA                 CSCER048
  
@YEAR DOY   DAS   DAP TMEAN  GSTD  NUAC  TNAD SDNAD  RNAD  CNAD  LNAD  SNAD  HNAD   HIND  RSNAD  SNNPD SNN0D SNN1D  RN%D  LN%D  SN%D   HN%D  SDN%D   VN%D LN%RD SN%RD RN%RD  VCN%  VMN% NUPRD NDEMD
 1974 310     5     0   5.5  0.00   0.0   1.5  1.49  0.00   0.0   0.0   0.0   0.0   0.00   0.00   0.00     0     0 0.000 0.000 0.000   0.00   1.90   0.00  0.00  0.00  0.00   0.0  0.00  0.00  0.00
 1974 311     6     1   7.6  3.30   0.0   1.5  1.49  0.00   0.0   0.0   0.0   0.0   0.00   0.00   0.00     0     0 0.000 0.000 0.000   0.00   1.90   0.00  0.00  0.00  0.00   0.0  0.00  0.00  0.00
 1974 312     7     2   9.0  5.73   0.0   1.5  1.49  0.00   0.0   0.0   0.0   0.0   0.00   0.00   0.00     0     0 0.000 0.000 0.000   0.00   1.90   0.00  0.00  0.00  0.00   0.0  0.00  0.00  0.00
 1974 313     8     3   9.9  7.12   0.0   1.5  1.48  0.02   0.0   0.0   0.0   0.0   0.00   0.00   0.00     0     0 1.990 0.000 0.000   0.00   1.90   0.00  0.00  0.00  1.00   0.0  0.00  0.00  0.00
 1974 314     9     4   7.5  8.12   0.0   1.5  1.48  0.03   0.0   0.0   0.0   0.0   0.00   0.00   0.00     0 .0000 1.983 0.000 0.000   0.00   1.91   0.00  0.00  0.00  1.00   0.0  0.00  2.00  0.01
 1974 315    10     5   7.3  9.12   0.0   1.5  1.48  0.04   0.0   0.0   0.0   0.0   0.00   0.00   0.00     0 .0000 1.976 0.000 0.000   0.00   1.92   0.00  0.00  0.00  1.00   0.0  0.00  2.00  0.01
 1974 316    11     6   5.0  9.74   0.0   1.5  1.47  0.04   0.0   0.0   0.0   0.0   0.00   0.00   0.00     0 .0000 1.972 0.000 0.000   0.00   1.93   0.00  0.00  0.00  1.00   0.0  0.00  2.00  0.01
 1974 317    12     7   6.0 10.00   0.0   1.5  1.47  0.05   0.0   0.0   0.0   0.0   0.00   0.00   0.00     0 .0000 1.970 0.000 0.000   0.00   1.94   0.00  0.00  0.00  1.00   0.0  0.00  2.00  0.01
 1974 318    13     8   9.0 10.18   0.1   1.6  1.32  0.07   0.2   0.1   0.0   0.0   0.00   0.00   0.00     0 .0000 1.964 6.314 0.000   0.00   1.82   6.40  1.00  0.00  1.00   6.3  0.75  0.25  0.15
 1974 319    14     9   8.2 10.34   0.1   1.6  1.21  0.08   0.3   0.2   0.0   0.0   0.00   0.00   0.00     0 .0001 1.959 6.274 0.529   0.00   1.74   5.92  0.99  0.28  1.00   6.3  0.75  0.37  0.12
 1974 320    15    10   7.1 10.49   0.2   1.7  1.15  0.09   0.4   0.3   0.0   0.0   0.00   0.00   0.00     0 .0001 1.960 6.289 0.663   0.00   1.70   5.64  1.00  0.35  1.00   6.3  0.74  0.56  0.09
 1974 321    16    11   5.6 10.60   0.2   1.7  1.11  0.10   0.5   0.3   0.0   0.0   0.00   0.00   0.00     0 .0001 1.961 6.295 0.743   0.00   1.68   5.36  1.00  0.39  1.00   6.3  0.74  0.64  0.06
 1974 322    17    12   4.8 10.70   0.2   1.7  1.09  0.10   0.5   0.4   0.0   0.0   0.00   0.00   0.00     0 .0001 1.961 6.297 0.861   0.00   1.68   5.35  1.00  0.45  1.00   6.3  0.74  0.88  0.05
 1974 323    18    13   4.4 10.78   0.3   1.8  1.08  0.11   0.6   0.4   0.0   0.0   0.00   0.00   0.00     0 .0001 1.961 6.299 0.970   0.00   1.69   4.95  1.00  0.51  1.00   6.3  0.74  1.03  0.04
 1974 324    19    14   4.0 10.86   0.3   1.8  1.08  0.12   0.6   0.4   0.0   0.0   0.00   0.00   0.00     0 .0002 1.962 6.300 1.051   0.00   1.70   5.00  1.00  0.55  1.00   6.3  0.74  1.17  0.03
 1974 325    20    15   7.0 11.01   0.4   1.9  1.00  0.13   0.7   0.5   0.0   0.0   0.00   0.00   0.00     0 .0002 1.962 6.304 0.952   0.00   1.63   5.02  1.00  0.50  1.00   6.3  0.74  0.38  0.09
 1974 326    21    16   7.9 11.16   0.4   1.9  0.87  0.14   0.9   0.6   0.0   0.0   0.00   0.00   0.00     0 .0002 1.962 6.302 0.828   0.00   1.50   5.12  1.00  0.43  1.00   6.3  0.74  0.29  0.13
 1974 327    22    17   8.2 11.33   0.4   1.9  0.74  0.15   1.0   0.7   0.0   0.0   0.00  -0.00   0.00     0 .0003 1.962 6.300 0.746   0.00   1.34   5.08  1.00  0.39  1.00   6.3  0.74  0.28  0.14
 1974 328    23    18   5.4 11.43   0.5   2.0  0.70  0.16   1.1   0.7   0.0   0.0   0.00   0.00   0.00     0 .0003 1.962 6.299 0.795   0.00   1.31   5.05  1.00  0.42  1.00   6.3  0.74  0.69  0.06
 1974 329    24    19   5.6 11.55   0.5   2.0  0.66  0.17   1.2   0.8   0.0   0.0   0.00   0.00   0.00     0 .0003 1.962 6.298 0.833   0.00   1.26   4.74  1.00  0.44  1.00   6.3  0.74  0.65  0.07
 1974 330    25    20   5.0 11.65   0.6   2.0  0.63  0.17   1.2   0.8   0.0   0.0   0.00   0.00   0.00     0 .0004 1.962 6.297 0.861   0.00   1.23   4.60  1.00  0.45  1.00   6.2  0.74  0.63  0.05
 1974 331    26    21   4.6 11.74   0.6   2.1  0.61  0.18   1.3   0.9   0.0   0.0   0.00   0.00   0.00     0 .0004 1.962 6.297 0.906   0.00   1.21   4.57  1.00  0.48  1.00   6.2  0.74  0.78  0.05
 1974 332    27    22   5.3 11.84   0.6   2.1  0.57  0.19   1.4   0.9   0.0   0.0   0.00   0.00   0.00     0 .0004 1.962 6.296 0.924   0.00   1.16   4.48  1.00  0.48  1.00   6.2  0.74  0.60  0.06
 1974 333    28    23   6.9 11.98   0.7   2.1  0.47  0.20   1.5   1.0   0.0   0.0   0.00  -0.00   0.00     0 .0005 1.962 6.295 0.874   0.00   1.00   4.40  1.00  0.46  1.00   6.2  0.74  0.27  0.10
 1974 334    29    24   7.8 12.07   0.7   2.2  0.40  0.21   1.6   1.0   0.0   0.0   0.00   0.00   0.00     0 .0005 1.961 6.293 0.855   0.00   0.89   4.37  1.00  0.45  1.00   6.2  0.74  0.36  0.08
 1974 335    30    25   8.7 12.15   0.7   2.2  0.32  0.22   1.7   1.1   0.0   0.0   0.00   0.00   0.00     0 .0006 1.962 6.292 0.831   0.00   0.74   4.37  1.00  0.44  1.00   6.2  0.74  0.33  0.09
 1974 336    31    26  11.0 12.26   0.7   2.2  0.19  0.23   1.8   1.2   0.0   0.0   0.00   0.00   0.00     0 .0007 1.961 6.291 0.787   0.00   0.47   4.40  1.00  0.41  1.00   6.2  0.74  0.26  0.13
 1974 337    32    27  11.1 12.38   0.8   2.3  0.06  0.25   2.0   1.3   0.0   0.0   0.00   0.00   0.00     0 .0008 1.961 6.289 0.757   0.00   0.17   4.44  1.00  0.40  1.00   6.2  0.74  0.29  0.13
 1974 338    33    28  10.0 12.48   0.8   2.3  0.00  0.26   2.1   1.4   0.0   0.0   0.00   0.00   0.00     0 .0009 1.956 6.168 0.749   0.00   0.00   4.26  0.98  0.39  1.00   6.2  0.74  0.33  0.13
 1974 339    34    29   6.2 12.54   0.9   2.4  0.00  0.26   2.1   1.4   0.0   0.0   0.00   0.00   0.00     0 .0009 1.944 6.142 0.813   0.00   0.00   4.10  0.98  0.43  0.99   6.2  0.74  0.78  0.06
 1974 340    35    30   8.1 12.62   0.9   2.4  0.00  0.27   2.2   1.4   0.0   0.0   0.00   0.00   0.00     0 .0010 1.926 6.055 0.861   0.00   0.00   3.97  0.96  0.45  0.98   6.2  0.74  0.62  0.10
 1974 341    36    31   9.4 12.71   1.0   2.5  0.00  0.28   2.2   1.5   0.0   0.0   0.00   0.00   0.00     0 .0011 1.907 5.881 0.872   0.00   0.00   3.82  0.94  0.46  0.97   6.2  0.74  0.42  0.13
 1974 342    37    32   9.8 12.81   1.1   2.5  0.00  0.29   2.3   1.5   0.0   0.0   0.00   0.00   0.00     0 .0012 1.890 5.725 0.886   0.00   0.00   3.75  0.91  0.47  0.96   6.2  0.74  0.43  0.14
 1974 343    38    33   7.5 12.89   1.1   2.6  0.00  0.30   2.3   1.5   0.0   0.0   0.00   0.00   0.00     0 .0013 1.878 5.712 0.937   0.00   0.00   3.70  0.91  0.49  0.96   6.2  0.74  0.72  0.09
 1974 344    39    34   3.3 12.92   1.1   2.6  0.00  0.30   2.3   1.6   0.0   0.0   0.00   0.00   0.00     0 .0013 1.883 5.744 0.991   0.00   0.00   3.67  0.91  0.52  0.96   6.2  0.74  2.00  0.03
 1974 345    40    35   2.2 12.94   1.2   2.7  0.00  0.31   2.4   1.6   0.0   0.0   0.00   0.00   0.00     0 .0014 1.888 5.772 1.038   0.00   0.00   3.62  0.92  0.55  0.96   6.2  0.74  2.00  0.02
 1974 346    41    36   4.5 12.99   1.2   2.7  0.00  0.31   2.4   1.6   0.0   0.0   0.00   0.00   0.00     0 .0014 1.893 5.802 1.091   0.00   0.00   3.64  0.92  0.58  0.97   6.2  0.74  1.45  0.04
 1974 347    42    37   3.6 13.02   1.2   2.7  0.00  0.32   2.4   1.6   0.0   0.0   0.00   0.00   0.00     0 .0015 1.898 5.829 1.137   0.00   0.00   3.56  0.93  0.60  0.97   6.2  0.74  1.69  0.03
 1974 348    43    38   4.5 13.07   1.3   2.8  0.00  0.33   2.5   1.6   0.0   0.0   0.00   0.00   0.00     0 .0015 1.903 5.856 1.184   0.00   0.00   3.50  0.93  0.63  0.97   6.2  0.74  1.32  0.05
 1974 349    44    39   4.9 13.12   1.3   2.8  0.00  0.34   2.5   1.7   0.0   0.0   0.00   0.00   0.00     0 .0016 1.907 5.883 1.230   0.00   0.00   3.40  0.94  0.65  0.97   6.2  0.74  1.15  0.05
 1974 350    45    40   6.3 13.18   1.4   2.9  0.00  0.35   2.5   1.7   0.0   0.0   0.00   0.00   0.00     0 .0017 1.898 5.856 1.251   0.00   0.00   3.41  0.93  0.66  0.97   6.2  0.74  0.65  0.07
 1974 351    46    41   4.8 13.23   1.4   2.9  0.00  0.36   2.6   1.7   0.0   0.0   0.00   0.00   0.00     0 .0017 1.899 5.877 1.288   0.00   0.00   3.31  0.94  0.68  0.97   6.2  0.74  0.94  0.05
 1974 352    47    42   5.6 13.28   1.5   3.0  0.00  0.36   2.6   1.8   0.0   0.0   0.00   0.00   0.00     0 .0018 1.898 5.885 1.320   0.00   0.00   3.27  0.94  0.70  0.97   6.2  0.74  0.85  0.06
 1974 353    48    43   6.5 13.35   1.6   3.0  0.00  0.37   2.7   1.8   0.0   0.0   0.00   0.00   0.00     0 .0019 1.889 5.870 1.340   0.00   0.00   3.25  0.93  0.71  0.96   6.2  0.74  0.71  0.08
 1974 354    49    44   9.4 13.44   1.6   3.1  0.00  0.38   2.7   1.8   0.0   0.0   0.00   0.00   0.00     0 .0020 1.877 5.726 1.332   0.00   0.00   3.21  0.91  0.70  0.96   6.2  0.74  0.39  0.15
 1974 355    50    45   9.4 13.54   1.7   3.2  0.00  0.39   2.8   1.9   0.0   0.0   0.00   0.00   0.00     0 .0022 1.865 5.609 1.336   0.00   0.00   3.23  0.89  0.71  0.95   6.2  0.74  0.42  0.15
 1974 356    51    46  10.0 13.64   1.7   3.2  0.00  0.40   2.8   1.9   0.0   0.0   0.00   0.00   0.00     0 .0023 1.853 5.488 1.335   0.00   0.00   3.23  0.87  0.71  0.94   6.2  0.74  0.41  0.16
 1974 357    52    47  10.2 13.74   1.8   3.3  0.00  0.41   2.9   1.9   0.0   0.0   0.00   0.00   0.00     0 .0025 1.842 5.386 1.329   0.00   0.00   3.20  0.86  0.70  0.94   6.2  0.74  0.42  0.17
 1974 358    53    48   7.6 13.82   1.9   3.4  0.00  0.41   3.0   2.0   0.0   0.0   0.00   0.00   0.00     0 .0026 1.836 5.395 1.348   0.00   0.00   3.19  0.86  0.71  0.94   6.2  0.74  0.70  0.11
 1974 359    54    49   6.9 13.89   2.0   3.5  0.00  0.42   3.0   2.0   0.0   0.0   0.00   0.00   0.00     0 .0027 1.839 5.432 1.372   0.00   0.00   3.26  0.87  0.73  0.94   6.2  0.74  0.86  0.09
 1974 360    55    50   7.9 13.96   2.0   3.5  0.00  0.43   3.1   2.1   0.0   0.0   0.00   0.00   0.00     0 .0029 1.834 5.433 1.388   0.00   0.00   3.27  0.87  0.73  0.94   6.2  0.74  0.68  0.11
 1974 361    56    51   9.8 14.06   2.1   3.6  0.00  0.43   3.2   2.1   0.0   0.0   0.00   0.00   0.00     0 .0030 1.826 5.361 1.387   0.00   0.00   3.27  0.85  0.73  0.93   6.2  0.74  0.47  0.17
 1974 362    57    52  10.5 14.17   2.2   3.7  0.00  0.44   3.2   2.1   0.0   0.0   0.00   0.06   0.00 .0093 .0032 1.820 5.270 1.385   0.00   0.00   3.28  0.84  0.73  0.93   6.2  0.74  0.42  0.19
 1974 363    58    53  10.4 14.27   2.3   3.8  0.00  0.45   3.3   2.2   0.0   0.0   0.00   0.06   0.00 .0185 .0034 1.819 5.284 1.404   0.00   0.00   3.31  0.84  0.74  0.93   6.2  0.74  0.63  0.13
 1974 364    59    54   4.1 14.31   2.3   3.8  0.00  0.46   3.3   2.2   0.0   0.0   0.00   0.02   0.00 .0221 .0035 1.830 5.339 1.432   0.00   0.00   3.22  0.85  0.76  0.93   6.2  0.74  2.00  0.01
 1974 365    60    55   5.0 14.36   2.3   3.8  0.00  0.47   3.3   2.2   0.0   0.0   0.00   0.03   0.00 .0266 .0036 1.838 5.394 1.461   0.00   0.00   3.21  0.86  0.77  0.94   6.2  0.74  1.66  0.05
 1975   1    61    56   6.0 14.42   2.4   3.9  0.00  0.47   3.4   2.2   0.0   0.0   0.00   0.03   0.00 .0319 .0037 1.845 5.449 1.486   0.00   0.00   3.23  0.87  0.79  0.94   6.2  0.74  1.52  0.06
 1975   2    62    57   7.5 14.50   2.5   3.9  0.00  0.48   3.4   2.3   0.0   0.0   0.00   0.04   0.00 .0385 .0038 1.852 5.507 1.509   0.00   0.00   3.28  0.88  0.80  0.94   6.2  0.74  1.09  0.08
 1975   3    63    58   7.2 14.57   2.5   4.0  0.00  0.49   3.5   2.3   0.0   0.0   0.00   0.04   0.00 .0450 .0039 1.859 5.560 1.534   0.00   0.00   3.28  0.89  0.81  0.95   6.2  0.74  1.28  0.07
 1975   4    64    59   4.0 14.61   2.6   4.0  0.00  0.50   3.5   2.3   0.0   0.0   0.00   0.02   0.00 .0486 .0040 1.866 5.600 1.555   0.00   0.00   3.22  0.89  0.83  0.95   6.2  0.74  2.00  0.02
 1975   5    65    60   5.1 14.66   2.6   4.0  0.00  0.51   3.5   2.3   0.0   0.0   0.00   0.03   0.00 .0531 .0041 1.872 5.640 1.576   0.00   0.00   3.21  0.90  0.84  0.95   6.2  0.74  2.00  0.05
 1975   6    66    61   8.4 14.75   2.7   4.1  0.00  0.51   3.6   2.4   0.0   0.0   0.00   0.05   0.00 .0607 .0043 1.877 5.678 1.591   0.00   0.00   3.28  0.91  0.85  0.96   6.2  0.74  0.94  0.10
 1975   7    67    62   6.7 14.81   2.8   4.2  0.00  0.52   3.7   2.4   0.0   0.0   0.00   0.04   0.00 .0666 .0044 1.883 5.718 1.612   0.00   0.00   3.25  0.91  0.86  0.96   6.2  0.74  1.88  0.05
 1975   8    68    63   6.9 14.88   2.8   4.2  0.00  0.53   3.7   2.4   0.0   0.0   0.00   0.04   0.00 .0727 .0046 1.887 5.756 1.628   0.00   0.00   3.27  0.92  0.87  0.96   6.2  0.74  1.57  0.06
 1975   9    69    64   7.2 14.95   2.9   4.3  0.00  0.53   3.8   2.5   0.0   0.0   0.00   0.04   0.00 .0792 .0047 1.891 5.792 1.642   0.00   0.00   3.32  0.92  0.87  0.96   6.2  0.74  1.51  0.07
 1975  10    70    65   8.1 15.03   3.0   4.4  0.00  0.53   3.9   2.5   0.0   0.0   0.00   0.05   0.00 .0864 .0049 1.895 5.829 1.654   0.00   0.00   3.40  0.93  0.88  0.97   6.2  0.74  1.07  0.10
 1975  11    71    66   8.9 15.12   3.1   4.5  0.00  0.54   3.9   2.6   0.0   0.0   0.00   0.06   0.00 .0947 .0051 1.895 5.822 1.662   0.00   0.00   3.45  0.93  0.89  0.97   6.2  0.74  0.77  0.13
 1975  12    72    67   7.9 15.20   3.2   4.6  0.00  0.54   4.0   2.6   0.0   0.0   0.00   0.05   0.00 0.102 .0052 1.899 5.857 1.674   0.00   0.00   3.51  0.94  0.89  0.97   6.2  0.74  1.12  0.09
 1975  13    73    68   5.6 15.26   3.2   4.6  0.00  0.55   4.0   2.7   0.0   0.0   0.00   0.04   0.00 0.107 .0053 1.903 5.884 1.689   0.00   0.00   3.46  0.94  0.90  0.97   6.2  0.74  2.00  0.04
 1975  14    74    69   7.8 15.34   3.3   4.7  0.00  0.56   4.1   2.7   0.0   0.0   0.00   0.05   0.00 0.115 .0055 1.904 5.890 1.697   0.00   0.00   3.49  0.94  0.91  0.97   6.2  0.74  0.85  0.12
 1975  15    75    70   8.4 15.42   3.4   4.8  0.00  0.58   4.2   2.8   0.0   0.0   0.00   0.05   0.00 0.123 .0057 1.898 5.877 1.698   0.00   0.00   3.45  0.94  0.91  0.97   6.2  0.74  0.76  0.14
 1975  16    76    71   4.8 15.47   3.5   4.8  0.00  0.59   4.2   2.8   0.0   0.0   0.00   0.03   0.00 0.127 .0058 1.902 5.900 1.709   0.00   0.00   3.38  0.94  0.91  0.97   6.2  0.74  2.00  0.03
 1975  17    77    72   4.8 15.51   3.5   4.9  0.00  0.60   4.3   2.8   0.0   0.0   0.00   0.03   0.00 0.132 .0059 1.906 5.922 1.720   0.00   0.00   3.33  0.95  0.92  0.97   6.2  0.74  2.00  0.05
 1975  18    78    73   2.5 15.54   3.5   4.9  0.00  0.60   4.3   2.8   0.0   0.0   0.00   0.02   0.00 0.134 .0060 1.909 5.940 1.728   0.00   0.00   3.32  0.95  0.93  0.97   6.2  0.74  2.00  0.00
 1975  19    79    74   3.5 15.57   3.5   4.9  0.00  0.62   4.3   2.8   0.0   0.0   0.00   0.02   0.00 0.137 .0060 1.913 5.958 1.736   0.00   0.00   3.24  0.95  0.93  0.98   6.2  0.74  2.00  0.04
 1975  20    80    75   3.9 15.61   3.6   4.9  0.00  0.63   4.3   2.8   0.0   0.0   0.00   0.03   0.00 0.141 .0061 1.915 5.975 1.744   0.00   0.00   3.23  0.96  0.93  0.98   6.2  0.74  2.00  0.03
 1975  21    81    76   5.1 15.66   3.6   5.0  0.00  0.65   4.3   2.9   0.0   0.0   0.00   0.03   0.00 0.146 .0063 1.919 5.992 1.752   0.00   0.00   3.13  0.96  0.94  0.98   6.2  0.74  1.21  0.07
 1975  22    82    77   6.4 15.73   3.7   5.1  0.00  0.65   4.4   2.9   0.0   0.0   0.00   0.04   0.00 0.152 .0064 1.921 6.011 1.758   0.00   0.00   3.19  0.96  0.94  0.98   6.2  0.74  1.10  0.08
 1975  23    83    78   4.9 15.78   3.8   5.1  0.00  0.67   4.4   2.9   0.0   0.0   0.00   0.03   0.00 0.156 .0065 1.924 6.026 1.765   0.00   0.00   3.13  0.96  0.95  0.98   6.2  0.74  2.00  0.04
 1975  24    84    79   6.5 15.84   3.9   5.2  0.00  0.69   4.5   3.0   0.0   0.0   0.00   0.04   0.00 0.163 .0067 1.917 6.017 1.762   0.00   0.00   3.05  0.96  0.95  0.98   6.2  0.74  0.80  0.11
 1975  25    85    80   7.8 15.92   4.0   5.3  0.00  0.70   4.6   3.0   0.0   0.0   0.00   0.05   0.00 0.170 .0069 1.911 5.977 1.756   0.00   0.00   3.05  0.96  0.95  0.98   6.2  0.74  0.66  0.14
 1975  26    86    81   4.7 15.97   4.0   5.3  0.00  0.72   4.6   3.0   0.0   0.0   0.00   0.03   0.00 0.174 .0070 1.915 5.993 1.763   0.00   0.00   2.93  0.96  0.95  0.98   6.2  0.74  1.97  0.04
 1975  27    87    82   4.2 16.01   4.0   5.3  0.00  0.73   4.6   3.1   0.0   0.0   0.00   0.03   0.00 0.178 .0071 1.917 6.008 1.768   0.00   0.00   2.94  0.96  0.95  0.98   6.2  0.74  2.00  0.03
 1975  28    88    83   4.1 16.05   4.1   5.4  0.00  0.73   4.6   3.1   0.0   0.0   0.00   0.04   0.00 0.184 .0073 1.919 6.022 1.772   0.00   0.00   2.95  0.97  0.96  0.98   6.2  0.74  2.00  0.04
 1975  29    89    84   5.7 16.11   4.1   5.4  0.00  0.74   4.7   3.1   0.0   0.0   0.00   0.05   0.00 0.191 .0074 1.922 6.037 1.777   0.00   0.00   2.98  0.97  0.96  0.98   6.2  0.74  1.02  0.08
 1975  30    90    85   7.8 16.18   4.2   5.5  0.00  0.75   4.8   3.1   0.0   0.0   0.00   0.07   0.00 0.202 .0076 1.912 5.940 1.753   0.00   0.00   2.94  0.95  0.95  0.98   6.2  0.74  0.45  0.17
 1975  31    91    86   9.5 16.28   4.3   5.6  0.00  0.76   4.8   3.2   0.0   0.0   0.00   0.09   0.00 0.214 .0079 1.905 5.774 1.734   0.00   0.00   2.94  0.93  0.94  0.97   6.2  0.74  0.32  0.24
 1975  32    92    87   6.8 16.35   4.4   5.6  0.00  0.77   4.9   3.2   0.0   0.0   0.00   0.06   0.00 0.224 .0081 1.901 5.775 1.731   0.00   0.00   2.89  0.93  0.94  0.97   6.2  0.74  0.68  0.10
 1975  33    93    88   4.5 16.39   4.4   5.7  0.00  0.78   4.9   3.2   0.0   0.0   0.00   0.04   0.00 0.230 .0082 1.905 5.803 1.738   0.00   0.00   2.87  0.93  0.95  0.97   6.2  0.74  1.94  0.04
 1975  34    94    89   4.8 16.44   4.5   5.7  0.00  0.79   4.9   3.3   0.0   0.0   0.00   0.04   0.00 0.236 .0084 1.908 5.829 1.745   0.00   0.00   2.87  0.94  0.95  0.98   6.1  0.74  1.09  0.06
 1975  35    95    90   3.5 16.48   4.5   5.7  0.00  0.80   4.9   3.3   0.0   0.0   0.00   0.03   0.00 0.241 .0085 1.911 5.851 1.750   0.00   0.00   2.86  0.94  0.96  0.98   6.1  0.74  2.00  0.02
 1975  36    96    91   3.5 16.51   4.5   5.8  0.00  0.81   4.9   3.3   0.0   0.0   0.00   0.03   0.00 0.245 .0086 1.914 5.872 1.755   0.00   0.00   2.81  0.95  0.96  0.98   6.1  0.74  1.64  0.04
 1975  37    97    92   2.5 16.53   4.5   5.8  0.00  0.82   4.9   3.3   0.0   0.0   0.00   0.02   0.00 0.249 .0087 1.916 5.890 1.759   0.00   0.00   2.78  0.95  0.96  0.98   6.1  0.74  2.00  0.01
 1975  38    98    93   4.9 16.58   4.6   5.8  0.00  0.84   5.0   3.3   0.0   0.0   0.00   0.05   0.00 0.255 .0088 1.901 5.878 1.749   0.00   0.00   2.70  0.95  0.96  0.97   6.1  0.74  0.66  0.10
 1975  39    99    94   3.6 16.62   4.6   5.9  0.00  0.86   5.0   3.3   0.0   0.0   0.00   0.03   0.00 0.260 .0089 1.905 5.897 1.754   0.00   0.00   2.64  0.95  0.96  0.97   6.1  0.74  2.00  0.03
 1975  40   100    95   2.6 16.65   4.7   5.9  0.00  0.88   5.0   3.3   0.0   0.0   0.00   0.02   0.00 0.264 .0090 1.909 5.914 1.758   0.00   0.00   2.57  0.95  0.97  0.98   6.1  0.74  2.00  0.03
 1975  41   101    96   2.9 16.68   4.7   5.9  0.00  0.89   5.0   3.3   0.0   0.0   0.00   0.03   0.00 0.267 .0091 1.911 5.930 1.761   0.00   0.00   2.56  0.96  0.97  0.98   6.1  0.74  2.00  0.03
 1975  42   102    97   4.6 21.00   4.8   6.0  0.00  0.90   5.1   3.3   0.0   0.0   0.00   0.04   0.00 0.273 .0093 1.914 5.947 1.765   0.00   0.00   2.57  0.96  0.97  0.98   6.1  0.74  1.22  0.07
 1975  43   103    98   7.6 21.04   4.8   6.0  0.00  0.91   5.1   3.4   0.0   0.0   0.00   0.07   0.00 0.284 .0095 1.908 5.740 1.736   0.00   0.00   2.56  0.93  0.96  0.98   6.1  0.74  0.28  0.29
 1975  44   104    99   6.6 21.07   4.9   6.1  0.00  0.92   5.2   3.4   0.0   0.0   0.00   0.06   0.00 0.293 .0098 1.898 5.669 1.710   0.00   0.00   2.53  0.92  0.95  0.97   6.1  0.74  0.44  0.19
 1975  45   105   100   3.0 21.08   4.9   6.1  0.00  0.94   5.2   3.4   0.0   0.0   0.00   0.03   0.00 0.297 .0099 1.901 5.699 1.716   0.00   0.00   2.50  0.92  0.95  0.97   6.1  0.74  2.00  0.02
 1975  46   106   101   2.4 21.09   5.0   6.2  0.00  0.94   5.2   3.5   0.0   0.0   0.00   0.02   0.00 0.300 .0100 1.904 5.726 1.721   0.00   0.00   2.49  0.93  0.96  0.97   6.1  0.74  2.00  0.03
 1975  47   107   102   3.5 21.11   5.0   6.2  0.00  0.96   5.3   3.5   0.0   0.0   0.00   0.03   0.00 0.305 .0101 1.907 5.753 1.726   0.00   0.00   2.49  0.93  0.96  0.98   6.1  0.74  1.11  0.08
 1975  48   108   103   5.7 21.14   5.1   6.3  0.00  0.96   5.3   3.5   0.0   0.0   0.00   0.05   0.00 0.312 .0103 1.904 5.707 1.719   0.00   0.00   2.50  0.92  0.96  0.97   6.1  0.74  0.53  0.16
 1975  49   109   104   4.9 21.16   5.2   6.4  0.00  0.98   5.4   3.6   0.0   0.0   0.00   0.04   0.00 0.318 .0105 1.899 5.700 1.710   0.00   0.00   2.49  0.92  0.96  0.97   6.1  0.74  0.66  0.12
 1975  50   110   105   4.4 21.18   5.3   6.5  0.00  1.01   5.4   3.6   0.0   0.0   0.00   0.04   0.00 0.324 .0106 1.881 5.690 1.697   0.00   0.00   2.39  0.92  0.95  0.96   6.1  0.74  0.61  0.14
 1975  51   111   106   4.2 21.20   5.4   6.5  0.00  1.04   5.5   3.6   0.0   0.0   0.00   0.04   0.00 0.329 .0108 1.864 5.682 1.685   0.00   0.00   2.30  0.92  0.95  0.95   6.1  0.74  0.62  0.13
 1975  52   112   107   3.4 21.21   5.5   6.6  0.00  1.08   5.5   3.7   0.0   0.0   0.00   0.03   0.00 0.334 .0109 1.868 5.706 1.690   0.00   0.00   2.23  0.93  0.95  0.96   6.1  0.74  0.93  0.09
 1975  53   113   108   4.1 21.23   5.6   6.7  0.00  1.11   5.6   3.7   0.0   0.0   0.00   0.03   0.00 0.339 .0111 1.857 5.705 1.682   0.00   0.00   2.17  0.93  0.95  0.95   6.1  0.74  0.69  0.13
 1975  54   114   109   5.1 21.26   5.7   6.8  0.00  1.14   5.6   3.7   0.0   0.0   0.00   0.04   0.00 0.345 .0113 1.841 5.659 1.654   0.00   0.00   2.09  0.92  0.94  0.94   6.1  0.74  0.51  0.19
 1975  55   115   110   5.0 21.28   5.8   6.9  0.00  1.19   5.7   3.8   0.0   0.0   0.00   0.04   0.00 0.351 .0116 1.823 5.630 1.634   0.00   0.00   1.99  0.92  0.93  0.93   6.1  0.74  0.55  0.19
 1975  56   116   111   2.4 21.29   5.8   6.9  0.00  1.20   5.7   3.8   0.0   0.0   0.00   0.02   0.00 0.354 .0117 1.830 5.658 1.642   0.00   0.00   1.99  0.92  0.93  0.94   6.0  0.74  2.00  0.03
 1975  57   117   112   5.1 21.31   5.9   7.0  0.00  1.25   5.8   3.8   0.0   0.0   0.00   0.04   0.00 0.361 .0119 1.813 5.611 1.614   0.00   0.00   1.91  0.92  0.92  0.93   6.0  0.73  0.52  0.21
 1975  58   118   113   3.7 21.33   6.0   7.1  0.00  1.31   5.8   3.9   0.0   0.0   0.00   0.03   0.00 0.365 .0121 1.824 5.641 1.623   0.00   0.00   1.83  0.92  0.93  0.94   6.0  0.73  0.97  0.12
 1975  59   119   114   4.6 21.35   6.1   7.3  0.00  1.36   5.9   3.9   0.0   0.0   0.00   0.04   0.00 0.371 .0123 1.812 5.638 1.617   0.00   0.00   1.77  0.92  0.93  0.93   6.0  0.73  0.70  0.18
 1975  60   120   115   7.0 21.38   6.3   7.4  0.00  1.38   6.0   3.9   0.0   0.0   0.00   0.06   0.00 0.380 .0127 1.804 5.540 1.577   0.00   0.00   1.75  0.91  0.91  0.93   6.0  0.73  0.45  0.30
 1975  61   121   116   7.3 21.43   6.4   7.5  0.00  1.41   6.1   4.0   0.0   0.0   0.00   0.06   0.00 0.389 .0131 1.797 5.455 1.548   0.00   0.00   1.74  0.89  0.89  0.92   6.0  0.73  0.45  0.30
 1975  62   122   117   8.8 21.49   6.5   7.6  0.00  1.43   6.2   4.1   0.0   0.0   0.00   0.07   0.00 0.400 .0136 1.790 5.282 1.506   0.00   0.00   1.74  0.87  0.87  0.92   6.0  0.73  0.32  0.43
 1975  63   123   118   6.8 21.53   6.7   7.8  0.00  1.47   6.3   4.2   0.0   0.0   0.00   0.05   0.00 0.409 .0140 1.780 5.256 1.486   0.00   0.00   1.71  0.86  0.87  0.91   6.0  0.73  0.52  0.27
 1975  64   124   119   6.1 21.57   6.8   7.9  0.00  1.49   6.4   4.2   0.0   0.0   0.00   0.05   0.00 0.417 .0144 1.783 5.268 1.489   0.00   0.00   1.72  0.87  0.87  0.92   6.0  0.73  0.69  0.21
 1975  65   125   120   6.9 21.61   7.0   8.0  0.00  1.50   6.5   4.3   0.0   0.0   0.00   0.05   0.00 0.425 .0148 1.779 5.237 1.479   0.00   0.00   1.73  0.86  0.87  0.91   6.0  0.73  0.53  0.28
 1975  66   126   121   7.1 21.66   7.1   8.2  0.00  1.53   6.7   4.4   0.0   0.0   0.00   0.06   0.00 0.434 .0152 1.773 5.206 1.464   0.00   0.00   1.73  0.86  0.87  0.91   6.0  0.73  0.52  0.30
 1975  67   127   122   4.5 21.69   7.3   8.3  0.00  1.56   6.8   4.5   0.0   0.0   0.00   0.03   0.00 0.440 .0155 1.781 5.249 1.477   0.00   0.00   1.72  0.87  0.88  0.92   5.9  0.73  0.88  0.14
 1975  68   128   123   4.8 21.72   7.4   8.4  0.00  1.58   6.8   4.5   0.0   0.0   0.00   0.04   0.00 0.447 .0158 1.782 5.266 1.477   0.00   0.00   1.72  0.87  0.88  0.92   5.9  0.73  0.69  0.18
 1975  69   129   124   3.2 21.74   7.5   8.5  0.00  1.60   6.9   4.6   0.1   0.0   0.00   0.03   0.00 0.451 .0160 1.792 5.311 1.490   0.00   0.00   1.72  0.88  0.89  0.92   5.9  0.73  1.30  0.10
 1975  70   130   125   4.0 21.76   7.6   8.6  0.00  1.63   7.0   4.6   0.1   0.0   0.00   0.03   0.00 0.456 .0163 1.797 5.342 1.497   0.00   0.00   1.72  0.88  0.90  0.92   5.9  0.73  0.84  0.14
 1975  71   131   126   4.8 21.80   7.7   8.7  0.00  1.63   7.1   4.7   0.1   0.0   0.00   0.04   0.00 0.463 .0166 1.802 5.359 1.503   0.00   0.00   1.74  0.89  0.90  0.93   5.9  0.73  0.75  0.16
 1975  72   132   127   3.7 21.82   7.8   8.8  0.00  1.65   7.2   4.8   0.1   0.0   0.00   0.03   0.00 0.468 .0168 1.810 5.399 1.512   0.00   0.00   1.76  0.90  0.91  0.93   5.9  0.73  1.17  0.10
 1975  73   133   128   3.0 21.84   7.9   8.9  0.00  1.68   7.3   4.8   0.1   0.0   0.00   0.03   0.00 0.472 .0171 1.818 5.435 1.521   0.00   0.00   1.75  0.90  0.92  0.94   5.9  0.73  1.10  0.10
 1975  74   134   129   2.6 21.86   8.0   9.0  0.00  1.70   7.3   4.8   0.1   0.0   0.00   0.02   0.00 0.476 .0172 1.826 5.467 1.530   0.00   0.00   1.74  0.91  0.93  0.94   5.9  0.73  1.44  0.07
 1975  75   135   130   3.0 21.88   8.1   9.1  0.00  1.75   7.4   4.9   0.1   0.0   0.00   0.03   0.00 0.480 .0174 1.826 5.488 1.533   0.00   0.00   1.69  0.91  0.93  0.94   5.9  0.73  0.83  0.13
 1975  76   136   131   2.1 21.89   8.2   9.2  0.00  1.80   7.4   4.9   0.1   0.0   0.00   0.02   0.00 0.483 .0176 1.834 5.516 1.540   0.00   0.00   1.66  0.92  0.94  0.94   5.9  0.73  1.25  0.08
 1975  77   137   132   2.0 21.91   8.3   9.3  0.00  1.85   7.4   4.9   0.1   0.0   0.00   0.02   0.00 0.485 .0177 1.841 5.542 1.545   0.00   0.00   1.63  0.92  0.94  0.95   5.9  0.73  0.99  0.09
 1975  78   138   133   1.5 21.92   8.3   9.3  0.00  1.86   7.4   4.9   0.1   0.0   0.00   0.01   0.00 0.487 .0178 1.846 5.566 1.551   0.00   0.00   1.63  0.93  0.95  0.95   5.9  0.73  2.00  0.04
 1975  79   139   134   2.5 21.93   8.4   9.4  0.00  1.87   7.5   5.0   0.1   0.0   0.00   0.02   0.00 0.491 .0180 1.851 5.590 1.556   0.00   0.00   1.64  0.93  0.95  0.95   5.9  0.73  1.37  0.07
 1975  80   140   135   4.8 21.97   8.5   9.5  0.00  1.89   7.6   5.0   0.1   0.0   0.00   0.04   0.00 0.498 .0184 1.845 5.553 1.531   0.00   0.00   1.62  0.93  0.94  0.95   5.9  0.73  0.47  0.19
 1975  81   141   136   4.6 22.00   8.6   9.5  0.00  1.92   7.6   5.0   0.1   0.0   0.00   0.04   0.00 0.504 .0187 1.836 5.537 1.518   0.00   0.00   1.59  0.93  0.94  0.95   5.9  0.73  0.54  0.17
 1975  82   142   137   5.9 22.04   8.7   9.6  0.00  1.98   7.6   5.0   0.1   0.0   0.00   0.05   0.00 0.512 .0192 1.823 5.448 1.467   0.00   0.00   1.53  0.91  0.91  0.94   5.8  0.73  0.32  0.29
 1975  83   143   138   5.8 22.08   8.8   9.7  0.00  2.04   7.7   5.1   0.1   0.0   0.00   0.05   0.00 0.520 .0196 1.809 5.338 1.409   0.00   0.00   1.47  0.89  0.88  0.93   5.8  0.73  0.28  0.34
 1975  84   144   139   4.6 22.11   8.8   9.8  0.00  2.10   7.7   5.1   0.1   0.0   0.00   0.04   0.00 0.526 .0200 1.795 5.291 1.383   0.00   0.00   1.42  0.89  0.87  0.93   5.8  0.73  0.38  0.26
 1975  85   145   140   5.2 22.14   9.0   9.9  0.00  2.13   7.8   5.1   0.1   0.0   0.00   0.04   0.00 0.533 .0204 1.790 5.246 1.362   0.00   0.00   1.41  0.88  0.86  0.92   5.8  0.72  0.40  0.26
 1975  86   146   141   2.2 22.16   9.0  10.0  0.00  2.16   7.8   5.2   0.1   0.0   0.00   0.02   0.00 0.536 .0206 1.799 5.284 1.375   0.00   0.00   1.40  0.89  0.87  0.93   5.8  0.72  1.37  0.08
 1975  87   147   142   1.4 22.17   9.1  10.1  0.00  2.21   7.9   5.2   0.1   0.0   0.00   0.01   0.00 0.538 .0207 1.808 5.318 1.386   0.00   0.00   1.38  0.89  0.87  0.93   5.8  0.72  1.05  0.10
 1975  88   148   143   2.8 22.18   9.2  10.2  0.00  2.26   7.9   5.2   0.1   0.0   0.00   0.02   0.00 0.542 .0210 1.804 5.334 1.390   0.00   0.00   1.36  0.90  0.88  0.93   5.8  0.72  0.70  0.15
 1975  89   149   144   2.1 22.20   9.3  10.3  0.00  2.31   8.0   5.3   0.1   0.0   0.00   0.02   0.00 0.545 .0212 1.813 5.367 1.401   0.00   0.00   1.34  0.90  0.89  0.94   5.8  0.72  1.01  0.11
 1975  90   150   145   3.4 22.22   9.5  10.4  0.00  2.36   8.0   5.3   0.1   0.0   0.00   0.03   0.00 0.549 .0215 1.803 5.365 1.397   0.00   0.00   1.31  0.91  0.89  0.93   5.8  0.72  0.59  0.19
 1975  91   151   146   4.2 22.25   9.6  10.5  0.00  2.42   8.1   5.3   0.1   0.0   0.00   0.04   0.00 0.555 .0219 1.793 5.341 1.383   0.00   0.00   1.27  0.90  0.88  0.93   5.8  0.72  0.49  0.24
 1975  92   152   147   4.9 22.28   9.7  10.6  0.00  2.48   8.1   5.4   0.1   0.0   0.00   0.04   0.00 0.562 .0223 1.782 5.289 1.356   0.00   0.00   1.23  0.89  0.87  0.92   5.8  0.72  0.41  0.29
 1975  93   153   148   2.5 22.30   9.8  10.7  0.00  2.53   8.2   5.4   0.1   0.0   0.00   0.02   0.00 0.565 .0226 1.792 5.323 1.368   0.00   0.00   1.22  0.90  0.88  0.93   5.8  0.72  1.18  0.10
 1975  94   154   149   2.5 22.31   9.9  10.8  0.00  2.59   8.2   5.5   0.1   0.0   0.00   0.02   0.00 0.569 .0229 1.799 5.353 1.377   0.00   0.00   1.21  0.91  0.89  0.93   5.7  0.72  0.94  0.13
 1975  95   155   150   1.9 22.33  10.0  10.9  0.00  2.63   8.3   5.5   0.1   0.0   0.00   0.02   0.00 0.571 .0230 1.807 5.382 1.387   0.00   0.00   1.20  0.91  0.90  0.93   5.7  0.72  1.35  0.09
 1975  96   156   151   3.4 22.35  10.1  11.0  0.00  2.69   8.3   5.5   0.1   0.0   0.00   0.03   0.00 0.576 .0234 1.798 5.378 1.382   0.00   0.00   1.17  0.91  0.90  0.93   5.7  0.72  0.60  0.21
 1975  97   157   152   4.1 22.38  10.3  11.2  0.00  2.74   8.4   5.6   0.1   0.0   0.00   0.05   0.00 0.583 .0239 1.790 5.358 1.370   0.00   0.00   1.15  0.91  0.89  0.93   5.7  0.72  0.53  0.24
 1975  98   158   153   3.2 22.40  10.4  11.3  0.00  2.82   8.5   5.6   0.1   0.0   0.00   0.04   0.00 0.589 .0242 1.783 5.367 1.371   0.00   0.00   1.12  0.91  0.90  0.92   5.7  0.72  0.67  0.19
 1975  99   159   154   1.6 22.41  10.5  11.4  0.00  2.87   8.5   5.6   0.1   0.0   0.00   0.02   0.00 0.592 .0244 1.793 5.394 1.380   0.00   0.00   1.10  0.92  0.91  0.93   5.7  0.72  1.56  0.09
 1975 100   160   155   2.9 22.43  10.6  11.5  0.00  2.94   8.6   5.7   0.1   0.0   0.00   0.03   0.00 0.597 .0247 1.793 5.407 1.383   0.00   0.00   1.09  0.92  0.91  0.93   5.7  0.72  0.77  0.18
 1975 101   161   156   6.6 22.47  10.8  11.6  0.00  2.99   8.6   5.7   0.1   0.0   0.00   0.08   0.00 0.609 .0255 1.784 5.257 1.311   0.00   0.00   1.07  0.90  0.87  0.92   5.7  0.72  0.28  0.48
 1975 102   162   157  10.3 22.54  10.9  11.7  0.00  3.08   8.6   5.7   0.1   0.0   0.00   0.12   0.00 0.627 .0267 1.772 4.866 1.167   0.00   0.00   1.03  0.83  0.78  0.92   5.6  0.72  0.13  1.01
 1975 103   163   158   9.9 22.60  11.0  11.8  0.00  3.16   8.7   5.7   0.1   0.0   0.00   0.10   0.00 0.645 .0280 1.762 4.591 1.078   0.00   0.00   1.00  0.79  0.73  0.91   5.6  0.72  0.12  0.88
 1975 104   164   159  10.1 22.66  11.1  11.9  0.00  3.20   8.7   5.7   0.1   0.0   0.00   0.10   0.00 0.663 .0293 1.757 4.397 1.045   0.00   0.00   0.99  0.76  0.72  0.91   5.6  0.72  0.18  0.83
 1975 105   165   160   9.0 22.71  11.3  12.0  0.00  3.25   8.8   5.8   0.1   0.0   0.00   0.08   0.00 0.680 .0305 1.752 4.263 1.008   0.00   0.00   0.98  0.74  0.70  0.91   5.6  0.71  0.16  0.69
 1975 106   166   161   8.4 22.75  11.4  12.1  0.00  3.35   8.8   5.8   0.1   0.0   0.00   0.08   0.00 0.695 .0316 1.740 4.135 0.951   0.00   0.00   0.94  0.72  0.67  0.90   5.6  0.71  0.16  0.72
 1975 107   167   162   9.8 22.80  11.5  12.3  0.00  3.39   8.9   5.8   0.1   0.0   0.00   0.08   0.00 0.713 .0329 1.736 4.022 0.934   0.00   0.00   0.94  0.70  0.67  0.90   5.5  0.71  0.20  0.78
 1975 108   168   163  12.4 22.86  11.7  12.4  0.00  3.49   8.9   5.8   0.1   0.0   0.00   0.10   0.00 0.735 .0347 1.725 3.824 0.852   0.00   0.00   0.91  0.67  0.62  0.90   5.5  0.71  0.11  1.06
 1975 109   169   164  11.4 22.92  11.8  12.5  0.00  3.57   8.9   5.8   0.1   0.0   0.00   0.09   0.00 0.756 .0363 1.718 3.686 0.806   0.00   0.00   0.89  0.65  0.60  0.90   5.5  0.71  0.13  0.95
 1975 110   170   165   8.9 22.96  11.9  12.6  0.00  3.68   8.9   5.8   0.1   0.0   0.00   0.09   0.00 0.778 .0376 1.707 3.567 0.757   0.00   0.00   0.86  0.63  0.57  0.89   5.4  0.71  0.13  0.93
 1975 111   171   166  11.0 23.00  12.1  12.7  0.00  3.77   9.0   5.8   0.1   0.0   0.00   0.11   0.00 0.806 .0393 1.699 3.436 0.720   0.00   0.00   0.84  0.61  0.55  0.89   5.4  0.71  0.15  1.12
 1975 112   172   167  12.8 23.06  12.2  12.8  0.00  3.89   8.9   5.8   0.1   0.0   0.00   0.12   0.00 0.838 .0414 1.689 3.239 0.660   0.00   0.00   0.81  0.58  0.51  0.88   5.4  0.71  0.09  1.44
 1975 113   173   168  11.8 23.10  12.4  13.0  0.00  3.98   9.0   5.9   0.1   0.0   0.00   0.10   0.00 0.868 .0433 1.682 3.131 0.637   0.00   0.00   0.79  0.56  0.50  0.88   5.3  0.70  0.15  1.25
 1975 114   174   169  11.9 23.15  12.5  13.1  0.00  4.12   9.0   5.9   0.1   0.0   0.00   0.10   0.00 0.898 .0453 1.672 2.999 0.589   0.00   0.00   0.76  0.54  0.47  0.88   5.3  0.70  0.10  1.35
 1975 115   175   170  11.6 23.19  12.7  13.2  0.00  4.18   9.0   5.9   0.1   0.0   0.00   0.09   0.00 0.927 .0474 1.668 2.915 0.576   0.00   0.00   0.75  0.53  0.47  0.87   5.3  0.70  0.12  1.21
 1975 116   176   171  13.9 23.24  12.8  13.3  0.00  4.26   9.0   5.9   0.1   0.0   0.00   0.11   0.00 0.963 .0498 1.663 2.810 0.556   0.00   0.00   0.74  0.51  0.47  0.87   5.2  0.70  0.11  1.39
 1975 117   177   172  10.6 23.27  13.0  13.4  0.00  4.28   9.2   6.0   0.1   0.0   0.00   0.08   0.00 0.990 .0518 1.662 2.778 0.560   0.00   0.00   0.75  0.51  0.48  0.87   5.2  0.70  0.14  1.05
 1975 118   178   173  13.8 23.32  13.1  13.6  0.00  4.37   9.2   6.0   0.1   0.0   0.00   0.07   0.00 1.013 .0543 1.656 2.665 0.534   0.00   0.00   0.73  0.49  0.47  0.87   5.2  0.70  0.10  1.55
 1975 119   179   174   9.6 23.35  13.3  13.7  0.00  4.46   9.2   6.0   0.1   0.0   0.00   0.10   0.00 1.050 .0561 1.650 2.600 0.514   0.00   0.00   0.72  0.48  0.46  0.87   5.1  0.70  0.12  1.30
 1975 120   180   175   7.9 23.37  13.4  13.8  0.00  4.57   9.2   6.0   0.1   0.0   0.00   0.08   0.00 1.080 .0576 1.644 2.574 0.501   0.00   0.00   0.70  0.48  0.45  0.87   5.1  0.69  0.15  1.07
 1975 121   181   176  10.1 23.40  13.6  13.9  0.00  4.62   9.3   6.0   0.1   0.0   0.00   0.23   0.00 1.167 .0596 1.640 2.537 0.495   0.00   0.00   0.70  0.47  0.46  0.86   5.1  0.69  0.16  1.29
 1975 122   182   177  12.7 23.44  13.8  14.0  0.00  4.70   9.3   5.9   0.1   0.0   0.00   0.25   0.00 1.265 .0621 1.636 2.499 0.489   0.00   0.00   0.69  0.47  0.46  0.86   5.0  0.69  0.12  1.36
 1975 123   183   178   7.3 23.46  14.0  14.1  0.00  4.81   9.3   6.0   0.2   0.0   0.00   0.20   0.00 1.342 .0636 1.630 2.533 0.493   0.00   0.00   0.67  0.47  0.47  0.86   5.0  0.69  0.20  0.84
 1975 124   184   179   7.5 23.48  14.1  14.2  0.00  4.94   9.2   5.9   0.2   0.0   0.00   0.20   0.00 1.420 .0652 1.624 2.542 0.491   0.00   0.00   0.65  0.48  0.48  0.86   5.0  0.69  0.18  0.94
 1975 125   185   180   8.2 23.50  14.3  14.3  0.00  5.05   9.2   6.0   0.2   0.0   0.00   0.13   0.00 1.469 .0670 1.618 2.548 0.487   0.00   0.00   0.64  0.48  0.48  0.86   4.9  0.69  0.18  1.00
 1975 126   186   181   9.5 23.53  14.5  14.5  0.00  5.17   9.3   6.1   0.2   0.0   0.00  -0.00   0.00 1.469 .0690 1.613 2.510 0.471   0.00   0.00   0.62  0.48  0.47  0.85   4.9  0.69  0.14  1.26
 1975 127   187   182  10.6 23.53  14.7  14.6  0.00  5.22   9.4   6.1   0.2   0.0   0.00   0.13   0.00 1.520 .0714 1.611 2.444 0.462   0.00   0.00   0.62  0.47  0.47  0.85   4.8  0.68  0.13  1.41
 1975 128   188   183  12.2 23.53  14.9  14.7  0.00  5.33   9.4   6.1   0.2   0.0   0.00   0.13   0.00 1.572 .0742 1.606 2.382 0.444   0.00   0.00   0.61  0.46  0.45  0.85   4.8  0.68  0.12  1.55
 1975 129   189   184  10.3 23.53  15.1  14.9  0.00  5.44   9.5   6.1   0.2   0.0   0.00   0.15   0.00 1.633 .0766 1.601 2.335 0.431   0.00   0.00   0.60  0.45  0.44  0.85   4.7  0.68  0.15  1.57
 1975 130   190   185  11.0 23.53  15.3  15.0  0.00  5.55   9.5   6.1   0.2   0.0   0.00   0.15   0.00 1.697 .0792 1.597 2.281 0.416   0.00   0.00   0.59  0.45  0.43  0.85   4.7  0.68  0.12  1.59
 1975 131   191   186   9.2 23.53  15.5  15.2  0.00  5.62   9.5   6.2   0.2   0.0   0.00   0.15   0.00 1.760 .0815 1.594 2.265 0.412   0.00   0.00   0.59  0.45  0.43  0.85   4.6  0.67  0.15  1.32
 1975 132   192   187   7.2 23.53  15.7  15.3  0.00  5.67   9.6   6.2   0.2   0.0   0.00   0.13   0.00 1.816 .0833 1.592 2.284 0.415   0.00   0.00   0.59  0.46  0.43  0.85   4.6  0.67  0.19  1.01
 1975 133   193   188  11.0 30.02  15.9  15.4  0.00  5.74   9.7   6.3   0.2   0.0   0.00   0.13   0.00 1.872 .0860 1.589 2.239 0.407   0.00   0.00   0.58  0.45  0.43  0.85   4.5  0.67  0.13  1.55
 1975 134   194   189  10.1 30.48  16.1  15.6  0.00  5.80   9.8   6.3   0.2   0.0   0.00   0.13   0.00 1.930 .0886 1.587 2.209 0.402   0.00   0.00   0.58  0.45  0.43  0.85   4.5  0.67  0.13  1.46
 1975 135   195   190   8.4 30.85  16.3  15.7  0.00  5.83   9.9   6.4   0.2   0.0   0.00   0.13   0.00 1.988 .0907 1.586 2.224 0.406   0.00   0.00   0.58  0.45  0.43  0.85   4.4  0.67  0.19  1.06
 1975 136   196   191   6.9 31.16  16.5  15.8  0.00  5.85  10.0   6.4   0.2   0.0   0.00   0.13   0.00 2.047 .0925 1.587 2.256 0.413   0.00   0.00   0.59  0.46  0.44  0.85   4.4  0.67  0.23  0.86
 1975 137   197   192   7.2 31.48  16.8  16.1  0.00  5.88  10.3   6.6   0.2   0.0   0.00   0.13   0.00 2.105 .0943 1.593 2.322 0.426   0.00   0.00   0.61  0.48  0.46  0.85   4.4  0.66  0.42  0.86
 1975 138   198   193   8.4 31.85  17.2  16.4  0.00  5.92  10.5   6.8   0.2   0.0   0.00   0.14   0.00 2.163 .0965 1.593 2.360 0.435   0.00   0.00   0.62  0.49  0.47  0.86   4.3  0.66  0.32  1.04
 1975 139   199   194  10.2 32.30  17.4  16.6  0.00  6.09  10.5   6.9   0.3   0.0   0.00   0.00   0.00 2.163 0.099 1.586 2.297 0.398   0.00   0.00   0.59  0.48  0.43  0.85   4.3  0.66  0.12  1.62
 1975 140   200   195  11.8 32.82  17.6  16.7  0.00  6.24  10.5   6.7   0.3   0.0   0.00   0.17   0.00 2.234 0.102 1.581 2.215 0.364   0.00   0.00   0.58  0.47  0.40  0.85   4.2  0.66  0.12  1.76
 1975 141   201   196  11.7 33.34  17.8  16.9  0.00  6.38  10.5   6.8   0.3   0.0   0.00   0.14   0.00 2.296 0.105 1.576 2.179 0.350   0.00   0.00   0.56  0.47  0.39  0.85   4.1  0.65  0.14  1.56
 1975 142   202   197   7.8 33.69  18.0  17.0  0.00  6.43  10.6   6.8   0.3   0.0   0.00   0.14   0.00 2.358 0.108 1.575 2.200 0.355   0.00   0.00   0.56  0.48  0.40  0.85   4.1  0.65  0.22  1.03
 1975 143   203   198   7.2 34.01  18.2  17.2  0.00  6.53  10.7   6.9   0.3   0.0   0.00   0.14   0.00 2.421 0.110 1.571 2.213 0.356   0.00   0.00   0.56  0.48  0.40  0.85   4.0  0.65  0.21  1.04
 1975 144   204   199   6.1 34.28  18.5  17.4  0.00  6.57  10.8   6.9   0.3   0.0   0.00   0.14   0.00 2.483 0.111 1.570 2.251 0.365   0.00   0.00   0.56  0.49  0.41  0.85   4.0  0.65  0.27  0.83
 1975 145   205   200   9.7 34.72  18.7  17.6  0.00  6.65  10.9   7.1   0.3   0.0   0.00   0.00   0.00 2.483 0.114 1.567 2.234 0.362   0.00   0.00   0.56  0.49  0.41  0.85   3.9  0.65  0.17  1.32
 1975 146   206   201  11.8 35.24  18.9  17.8  0.00  6.79  11.0   7.1   0.3   0.0   0.00   0.00   0.00 2.483 0.118 1.563 2.162 0.336   0.00   0.00   0.54  0.48  0.39  0.85   3.9  0.64  0.13  1.76
 1975 147   207   202  12.6 35.80  19.2  18.1  0.00  6.91  11.2   7.1   0.4   0.0   0.00   0.15   0.00 2.549 0.121 1.559 2.116 0.325   0.00   0.00   0.54  0.48  0.38  0.85   3.8  0.64  0.19  1.76
 1975 148   208   203  14.4 36.44  19.5  18.2  0.00  7.02  11.2   7.2   0.4   0.0   0.00   0.15   0.00 2.616 0.126 1.556 2.101 0.320   0.00   0.00   0.53  0.48  0.38  0.85   3.7  0.64  0.16  1.39
 1975 149   209   204   9.0 36.84  19.8  18.5  0.00  7.06  11.4   7.3   0.4   0.0   0.00   0.15   0.00 2.683 0.129 1.556 2.136 0.331   0.00   0.00   0.54  0.50  0.39  0.85   3.6  0.63  0.30  1.01
 1975 150   210   205   7.7 37.18  20.0  18.7  0.00  7.15  11.5   7.4   0.4   0.0   0.00   0.02   0.00 2.691 0.131 1.553 2.154 0.334   0.00   0.00   0.53  0.50  0.40  0.85   3.6  0.63  0.22  1.01
 1975 151   211   206   6.1 37.45  20.1  18.8  0.00  7.27  11.5   7.4   0.4   0.0   0.00   0.01   0.00 2.697 0.133 1.550 2.138 0.326   0.00   0.00   0.52  0.50  0.39  0.85   3.6  0.63  0.13  1.04
 1975 152   212   207   7.6 37.79  20.4  19.0  0.00  7.37  11.7   7.5   0.4   0.0   0.00   0.02   0.00 2.704 0.135 1.547 2.133 0.321   0.00   0.00   0.52  0.51  0.39  0.84   3.5  0.63  0.21  1.14
 1975 153   213   208   7.7 38.13  20.5  19.2  0.00  7.48  11.7   7.5   0.4   0.0   0.00   0.02   0.00 2.712 0.138 1.544 2.111 0.310   0.00   0.00   0.51  0.50  0.37  0.84   3.5  0.63  0.13  1.16
 1975 154   214   209   7.5 38.46  20.8  19.4  0.00  7.60  11.8   7.6   0.5   0.0   0.00   0.02   0.00 2.719 0.140 1.541 2.106 0.306   0.00   0.00   0.50  0.51  0.37  0.84   3.4  0.62  0.21  1.15
 1975 155   215   210   8.4 38.84  21.0  19.6  0.00  7.68  12.0   7.7   0.5   0.0   0.00   0.02   0.00 2.727 0.143 1.539 2.101 0.302   0.00   0.00   0.50  0.51  0.37  0.84   3.4  0.62  0.21  1.18
 1975 156   216   211  12.5 39.39  21.2  19.8  0.00  7.77  12.0   7.7   0.5   0.0   0.00   0.03   0.00 2.740 0.147 1.536 2.057 0.291   0.00   0.00   0.49  0.51  0.36  0.84   3.3  0.62  0.11  1.47
 1975 157   217   212  17.8 40.21  21.4  20.0  0.00  7.93  12.1   7.7   0.5   0.0   0.00   0.04   0.00 2.757 0.154 1.532 1.998 0.273   0.00   0.00   0.48  0.50  0.34  0.84   3.2  0.61  0.13  1.83
 1975 158   218   213  18.0 41.11  21.6  20.2  0.00  8.08  12.1   7.7   0.5   0.0   0.00   0.07   0.03 2.757 0.160 1.529 2.004 0.242   0.00   0.00   0.47  0.51  0.31  0.84   3.1  0.60  0.15  1.09
 1975 159   219   214  15.7 41.89  21.9  20.4  0.00  8.24  12.2   7.7   0.6   0.0   0.00   0.06   0.06 2.757 0.166 1.525 2.025 0.238   0.00   0.00   0.46  0.53  0.31  0.84   2.9  0.60  0.26  1.06
 1975 160   220   215  15.9 42.69  22.1  20.7  0.00  8.38  12.3   7.7   0.6   0.0   0.00   0.06   0.09 2.757 0.171 1.522 2.044 0.235   0.00   0.00   0.45  0.54  0.31  0.84   2.8  0.59  0.26  1.02
 1975 161   221   216  15.3 43.45  22.4  21.0  0.00  8.53  12.5   7.7   0.7   0.0   0.00   0.06   0.12 2.757 0.177 1.519 2.070 0.241   0.00   0.00   0.44  0.56  0.33  0.84   2.7  0.58  0.33  1.00
 1975 162   222   217  16.9 44.29  22.7  21.3  0.00  8.69  12.6   7.7   0.8   0.0   0.00   0.07   0.15 2.757 0.183 1.515 2.087 0.236   0.00   0.00   0.43  0.58  0.33  0.84   2.5  0.57  0.25  1.02
 1975 163   223   218  17.9 45.19  23.1  21.6  0.00  8.83  12.8   7.8   0.9   0.0   0.00   0.08   0.19 2.757 0.190 1.512 2.116 0.247   0.00   0.00   0.43  0.60  0.35  0.84   2.4  0.56  0.38  0.96
 1975 164   224   219  18.0 46.09  23.4  21.9  0.00  8.97  13.0   7.8   1.0   0.0   0.00   0.08   0.22 2.757 0.197 1.509 2.141 0.254   0.00   0.00   0.42  0.62  0.37  0.84   2.3  0.56  0.35  0.91
 1975 165   225   220  17.5 46.96  23.7  22.2  0.00  9.07  13.2   7.8   1.1   0.0   0.00   0.08   0.25 2.757 0.204 1.510 2.174 0.269   0.00   0.00   0.42  0.64  0.41  0.85   2.2  0.55  0.45  0.71
 1975 166   226   221  14.9 47.71  24.0  22.5  0.00  9.16  13.4   7.9   1.3   0.0   0.00   0.07   0.28 2.757 0.210 1.510 2.204 0.282   0.00   0.00   0.42  0.67  0.44  0.85   2.1  0.54  0.45  0.68
 1975 167   227   222  10.4 48.23  24.4  23.0  0.00  9.30  13.7   8.0   1.4   0.0   0.00   0.05   0.30 2.757 0.215 1.516 2.241 0.301   0.00   0.00   0.42  0.69  0.47  0.85   2.0  0.54  0.64  0.66
 1975 168   228   223  13.8 48.92  24.7  23.2  0.00  9.40  13.8   8.0   1.6   0.0   0.00   0.07   0.32 2.757 0.220 1.513 2.264 0.307   0.00   0.00   0.42  0.71  0.49  0.85   1.9  0.53  0.41  0.72
 1975 169   229   224  13.4 49.58  25.0  23.5  0.00  9.52  14.0   8.0   1.7   0.0   0.00   0.07   0.35 2.757 0.226 1.511 2.284 0.310   0.00   0.00   0.41  0.73  0.51  0.85   1.8  0.53  0.40  0.74
 1975 170   230   225  15.5 51.43  25.5  24.0  0.00  9.67  14.3   8.0   1.9   0.0   0.00   0.08   0.38 2.757 0.232 1.517 2.314 0.327   0.00   0.00   0.41  0.75  0.55  0.86   1.8  0.52  0.69  0.65
 1975 171   231   226  16.8 54.79  25.7  24.2  0.00  9.79  14.5   8.0   2.0   0.0   0.00   0.07   0.40 2.757 0.239 1.515 2.331 0.327   0.00   0.00   0.40  0.76  0.56  0.86   1.7  0.51  0.39  0.70
 1975 172   232   227  17.5 58.30  26.0  24.5  0.00  9.89  14.6   8.0   2.2   0.0   0.00   0.08   0.43 2.757 0.247 1.513 2.348 0.331   0.00   0.00   0.39  0.78  0.57  0.86   1.6  0.51  0.44  0.67
 1975 173   233   228  16.0 63.73  26.4  24.9  0.00 10.00  14.9   8.0   2.4   0.0   0.00   0.07   0.46 2.757 0.254 1.514 2.367 0.336   0.00   0.00   0.39  0.79  0.59  0.86   1.6  0.50  0.49  0.67
 1975 174   234   229  13.8 70.09  26.8  25.2  0.00 10.11  15.1   8.0   2.6   0.0   0.00   0.06   0.48 2.757 0.260 1.526 2.395 0.353   0.00   0.00   0.39  0.81  0.62  0.87   1.5  0.50  0.91  0.43
 1975 175   235   230  17.3 71.42  27.1  25.6  0.00 10.19  15.4   8.0   2.8   0.1   0.00   0.08   0.50 2.757 0.267 1.526 2.409 0.352   2.00   0.00   0.38  0.82  0.63  0.87   1.5  0.49  0.49  0.71
 1975 176   236   231  14.4 72.53  27.4  25.9  0.00  9.89  16.0   7.9   2.8   0.7   0.05   0.07   0.53 2.757 0.274 1.474 2.402 0.326   2.00   0.00   0.36  0.83  0.59  0.84   1.4  0.49  0.21  1.32
 1975 177   237   232  15.7 73.73  27.8  26.2  0.00  9.67  16.6   7.3   2.8   2.2   0.13   0.07   0.55 2.757 0.281 1.436 2.245 0.326   2.00   0.00   0.34  0.78  0.60  0.82   1.4  0.49  0.23  1.74
 1975 178   238   233  14.1 74.82  28.1  26.5  0.00  9.49  17.0   6.5   2.8   3.9   0.23   0.06   0.57 2.757 0.287 1.408 1.997 0.326   2.00   0.00   0.31  0.70  0.61  0.81   1.4  0.48  0.14  2.04
 1975 179   239   234  11.5 75.71  28.4  26.8  0.00  9.34  17.5   5.8   2.8   5.4   0.31   0.04   0.59 2.757 0.292 1.385 1.790 0.326   2.00   0.00   0.28  0.64  0.62  0.80   1.3  0.48  0.16  1.84
 1975 180   240   235  12.2 76.65  28.7  27.2  0.00  9.22  17.9   5.0   2.8   7.1   0.39   0.04   0.61 2.757 0.297 1.367 1.552 0.326   1.91   0.00   0.26  0.56  0.62  0.79   1.3  0.48  0.14  2.41
 1975 181   241   236  14.2 77.74  29.0  27.5  0.00  9.12  18.3   4.3   2.8   8.4   0.46   0.04   0.63 2.757 0.303 1.352 1.362 0.326   1.59   0.00   0.24  0.49  0.63  0.78   1.3  0.48  0.08  3.60
 1975 182   242   237  14.9 78.88  29.3  27.7  0.00  9.04  18.7   3.7   2.8   9.5   0.51   0.10   0.71 2.757 0.310 1.339 1.209 0.326   1.31   0.00   0.23  0.44  0.64  0.77   1.3  0.47  0.06  4.49
 1975 183   243   238  15.6 80.02  29.5  27.9  0.00  8.97  19.0   3.3   2.8  10.4   0.55   0.08   0.79 2.757 0.317 1.328 1.087 0.326   1.07   0.00   0.23  0.40  0.65  0.77   1.3  0.47  0.04  5.50
 1975 184   244   239  14.9 80.30  29.9  28.3  0.00  8.91  19.4   2.9   2.8  11.3   0.59   0.05   0.85 2.757 0.323 1.320 0.990 0.326   1.00   0.00   0.22  0.37  0.66  0.76   1.2  0.47  0.06  5.76
 1975 185   245   240  16.8 80.62  30.1  28.5  0.00  8.87  19.7   2.6   2.8  12.0   0.61   0.04   0.92 2.757 0.330 1.313 0.912 0.326   1.00   0.00   0.21  0.35  0.66  0.76   1.2  0.47  0.04  6.95
 1975 186   246   241  14.1 80.88  30.4  28.8  0.00  8.83  20.0   2.4   2.8  12.7   0.63   0.03   0.97 2.757 0.337 1.308 0.850 0.326   1.00   0.00   0.21  0.33  0.66  0.76   1.2  0.47  0.06  5.29
 1975 187   247   242  16.3 81.19  30.7  29.1  0.00  8.79  20.3   2.2   2.8  13.1   0.65   0.02   1.03 2.757 0.344 1.303 0.800 0.326   1.00   0.00   0.20  0.31  0.67  0.76   1.2  0.46  0.03  6.80
 1975 188   248   243  17.0 81.52  30.9  29.3  0.00  8.76  20.5   2.0   2.8  13.6   0.66   0.02   1.09 2.757 0.351 1.300 0.760 0.326   1.00   0.00   0.20  0.30  0.67  0.75   1.1  0.46  0.03  7.07
 1975 189   249   244  18.1 81.86  31.2  29.6  0.00  8.73  20.8   1.9   2.8  14.0   0.67   0.02   1.15 2.757 0.359 1.297 0.728 0.326   1.00   0.00   0.20  0.29  0.68  0.75   1.1  0.46  0.04  7.46
 1975 190   250   245  17.5 82.19  31.4  29.8  0.00  8.71  21.1   1.8   2.8  14.4   0.68   0.01   1.20 2.757 0.366 1.294 0.702 0.326   1.00   0.00   0.19  0.29  0.68  0.75   1.1  0.46  0.03  7.21
 1975 191   251   246  17.7 82.52  31.7  30.0  0.00  8.69  21.4   1.7   2.8  14.8   0.69   0.01   1.26 2.757 0.374 1.292 0.682 0.326   1.00   0.00   0.19  0.28  0.69  0.75   1.1  0.46  0.04  7.28
 1975 192   252   247  18.2 82.86  31.9  30.3  0.00  8.67  21.6   1.6   2.8  15.1   0.70   0.01   1.31 2.757 0.382 1.290 0.665 0.326   1.00   0.00   0.19  0.28  0.69  0.75   1.0  0.46  0.03  7.46
 1975 193   253   248  15.3 83.15  32.2  30.5  0.00  8.65  21.9   1.5   2.8  15.4   0.70   0.01   1.36 2.757 0.388 1.288 0.652 0.326   1.00   0.00   0.19  0.28  0.69  0.75   1.0  0.46  0.04  6.10
 1975 194   254   249  19.0 83.51  32.4  30.7  0.00  8.63  22.1   1.5   2.8  15.7   0.71   0.00   1.41 2.757 0.397 1.286 0.642 0.326   1.00   0.00   0.19  0.28  0.70  0.75   1.0  0.46  0.03  7.78
 1975 195   255   250  20.2 83.89  32.6  31.0  0.00  8.61  22.3   1.4   2.8  15.9   0.71   0.00   1.47 2.757 0.405 1.285 0.633 0.326   1.00   0.00   0.19  0.28  0.71  0.75   1.0  0.46  0.03  8.22
 1975 196   256   251  17.6 84.23  32.8  31.2  0.00  8.60  22.6   1.4   2.8  16.2   0.72   0.00   1.51 2.757 0.413 1.284 0.627 0.326   1.00   0.00   0.19  0.29  0.71  0.75   0.9  0.46  0.03  7.20
 1975 197   257   252  17.8 84.56  33.1  31.4  0.00  8.58  22.8   1.3   2.8  16.5   0.72   0.00   1.56 2.757 0.421 1.282 0.621 0.326   1.00   0.00   0.19  0.29  0.72  0.75   0.9  0.45  0.03  7.26
 1975 198   258   253  18.5 84.91  33.3  31.6  0.00  8.56  23.1   1.3   2.8  16.7   0.73   0.00   1.61 2.757 0.428 1.281 0.617 0.326   1.00   0.00   0.20  0.29  0.72  0.75   0.9  0.45  0.03  7.50
 1975 199   259   254  16.8 85.23  33.5  31.8  0.00  8.55  23.2   1.2   2.8  16.9   0.73   0.00   1.66 2.757 0.436 1.280 0.614 0.326   1.00   0.00   0.20  0.30  0.73  0.75   0.9  0.45  0.03  6.85
 1975 200   260   255  16.2 85.54  33.7  32.0  0.00  8.53  23.5   1.2   2.8  17.2   0.73   0.00   1.70 2.757 0.442 1.279 0.611 0.326   1.00   0.00   0.20  0.30  0.73  0.75   0.9  0.45  0.03  6.61
 1975 201   261   256  17.9 85.87  33.9  32.2  0.00  8.52  23.7   1.2   2.8  17.4   0.73   0.00   1.75 2.757 0.450 1.278 0.609 0.326   1.00   0.00   0.20  0.31  0.74  0.75   0.8  0.45  0.03  7.23
 1975 202   262   257  15.8 86.17  34.1  32.4  0.00  8.51  23.9   1.1   2.8  17.6   0.74   0.00   1.79 2.757 0.457 1.277 0.607 0.326   1.00   0.00   0.20  0.31  0.74  0.75   0.8  0.45  0.03  6.32
 1975 203   263   258  17.0 86.49  34.3  32.6  0.00  8.49  24.1   1.1   2.8  17.8   0.74   0.00   1.83 2.757 0.464 1.276 0.606 0.326   1.00   0.00   0.20  0.32  0.75  0.75   0.8  0.45  0.03  6.86
 1975 204   264   259  17.2 86.82  34.5  32.8  0.00  8.48  24.3   1.1   2.8  18.0   0.74   0.00   1.87 2.757 0.471 1.275 0.604 0.326   1.00   0.00   0.20  0.32  0.75  0.75   0.8  0.45  0.03  6.97
 1975 205   265   260  13.4 87.07  34.7  33.0  0.00  8.47  24.5   1.1   2.8  18.2   0.74   0.00   1.91 2.757 0.477 1.274 0.604 0.326   1.00   0.00   0.20  0.33  0.76  0.75   0.8  0.45  0.04  4.65
 1975 206   266   261  13.9 87.33  34.9  33.2  0.00  8.45  24.7   1.0   2.8  18.4   0.75   0.00   2.01 2.757 0.483 1.273 0.603 0.326   1.00   0.00   0.20  0.33  0.76  0.75   0.7  0.44  0.04  4.96
 1975 207   267   262  18.0 87.67  35.1  33.3  0.00  8.44  24.9   0.9   2.8  18.6   0.75   0.00   2.11 2.757 0.490 1.272 0.602 0.326   1.00   0.00   0.21  0.34  0.77  0.75   0.7  0.44  0.02  7.19
 1975 208   268   263  19.2 88.04  35.3  33.5  0.00  8.43  25.1   0.8   2.8  18.8   0.75   0.00   2.22 2.757 0.498 1.271 0.602 0.326   1.00   0.00   0.21  0.35  0.78  0.75   0.7  0.44  0.02  7.67
 1975 209   269   264  20.5 88.42  35.4  33.7  0.00  8.41  25.3   0.8   2.8  19.0   0.75  -0.00   2.36 2.757 0.507 1.270 0.601 0.326   1.00   0.00   0.21  0.36  0.78  0.75   0.6  0.44  0.02  8.15
 1975 210   270   265  20.9 88.82  35.6  33.8  0.00  8.39  25.4   0.7   2.8  19.2   0.75  -0.01   2.51 2.757 0.516 1.269 0.601 0.326   1.00   0.00   0.21  0.37  0.79  0.75   0.6  0.43  0.02  8.25
 1975 211   271   266  21.2 89.22  35.8  34.0  0.00  8.38  25.6   0.6   2.8  19.3   0.75  -0.01   2.65 2.757 0.525 1.268 0.601 0.326   1.00   0.00   0.21  0.38  0.80  0.75   0.6  0.43  0.02  8.37
 1975 212   272   267  20.2 89.60  36.0  34.2  0.00  8.36  25.8   0.5   2.7  19.5   0.76  -0.01   2.79 2.757 0.533 1.267 0.600 0.326   1.00   0.00   0.21  0.39  0.81  0.75   0.6  0.43  0.02  7.95
 1975 213   273   268  20.2 89.98  36.1  34.3  0.00  8.35  26.0   0.4   2.7  19.7   0.76  -0.02   2.92 2.757 0.541 1.266 0.600 0.326   1.00   0.00   0.21  0.40  0.81  0.75   0.5  0.42  0.02  7.95
 1975 214   274   269  19.3 90.91  36.3  34.5  0.00  8.33  26.2   0.4   2.7  19.9   0.76  -0.02   3.05 2.757 0.549 1.264 0.600 0.326   1.00   0.00   0.21  0.41  0.81  0.75   0.5  0.42  0.02  7.60

*DSSAT Cropping System Model Ver. 4.8.2.010 -develop  JUL 08, 2024 16:11:18

*RUN   2        : 30 KG N/HA                CSCER048 RORO7401    2
 MODEL          : CSCER048 - Wheat
 EXPERIMENT     : RORO7401 WH N RESPONSE,ROTHAMSTED  8FE(N)  (DSSAT3)
 DATA PATH      : C:\DSSAT48\Wheat\
 TREATMENT  2   : 30 KG N/HA                CSCER048
  
@YEAR DOY   DAS   DAP TMEAN  GSTD  NUAC  TNAD SDNAD  RNAD  CNAD  LNAD  SNAD  HNAD   HIND  RSNAD  SNNPD SNN0D SNN1D  RN%D  LN%D  SN%D   HN%D  SDN%D   VN%D LN%RD SN%RD RN%RD  VCN%  VMN% NUPRD NDEMD
 1974 310     5     0   5.5  0.00   0.0   1.5  1.49  0.00   0.0   0.0   0.0   0.0   0.00   0.00   0.00     0     0 0.000 0.000 0.000   0.00   1.90   0.00  0.00  0.00  0.00   0.0  0.00  0.00  0.00
 1974 311     6     1   7.6  3.30   0.0   1.5  1.49  0.00   0.0   0.0   0.0   0.0   0.00   0.00   0.00     0     0 0.000 0.000 0.000   0.00   1.90   0.00  0.00  0.00  0.00   0.0  0.00  0.00  0.00
 1974 312     7     2   9.0  5.73   0.0   1.5  1.49  0.00   0.0   0.0   0.0   0.0   0.00   0.00   0.00     0     0 0.000 0.000 0.000   0.00   1.90   0.00  0.00  0.00  0.00   0.0  0.00  0.00  0.00
 1974 313     8     3   9.9  7.12   0.0   1.5  1.48  0.02   0.0   0.0   0.0   0.0   0.00   0.00   0.00     0     0 1.990 0.000 0.000   0.00   1.90   0.00  0.00  0.00  1.00   0.0  0.00  0.00  0.00
 1974 314     9     4   7.5  8.12   0.0   1.5  1.48  0.03   0.0   0.0   0.0   0.0   0.00   0.00   0.00     0 .0000 1.983 0.000 0.000   0.00   1.91   0.00  0.00  0.00  1.00   0.0  0.00  2.00  0.01
 1974 315    10     5   7.3  9.12   0.0   1.5  1.48  0.04   0.0   0.0   0.0   0.0   0.00   0.00   0.00     0 .0000 1.976 0.000 0.000   0.00   1.92   0.00  0.00  0.00  1.00   0.0  0.00  2.00  0.01
 1974 316    11     6   5.0  9.74   0.0   1.5  1.47  0.04   0.0   0.0   0.0   0.0   0.00   0.00   0.00     0 .0000 1.972 0.000 0.000   0.00   1.93   0.00  0.00  0.00  1.00   0.0  0.00  2.00  0.01
 1974 317    12     7   6.0 10.00   0.0   1.5  1.47  0.05   0.0   0.0   0.0   0.0   0.00   0.00   0.00     0 .0000 1.970 0.000 0.000   0.00   1.94   0.00  0.00  0.00  1.00   0.0  0.00  2.00  0.01
 1974 318    13     8   9.0 10.18   0.1   1.6  1.32  0.07   0.2   0.1   0.0   0.0   0.00   0.00   0.00     0 .0000 1.964 6.314 0.000   0.00   1.82   6.40  1.00  0.00  1.00   6.3  0.75  0.25  0.15
 1974 319    14     9   8.2 10.34   0.1   1.6  1.21  0.08   0.3   0.2   0.0   0.0   0.00   0.00   0.00     0 .0001 1.959 6.274 0.529   0.00   1.74   5.92  0.99  0.28  1.00   6.3  0.75  0.37  0.12
 1974 320    15    10   7.1 10.49   0.2   1.7  1.15  0.09   0.4   0.3   0.0   0.0   0.00   0.00   0.00     0 .0001 1.960 6.289 0.663   0.00   1.70   5.64  1.00  0.35  1.00   6.3  0.74  0.56  0.09
 1974 321    16    11   5.6 10.60   0.2   1.7  1.11  0.10   0.5   0.3   0.0   0.0   0.00   0.00   0.00     0 .0001 1.961 6.295 0.743   0.00   1.68   5.36  1.00  0.39  1.00   6.3  0.74  0.64  0.06
 1974 322    17    12   4.8 10.70   0.2   1.7  1.09  0.10   0.5   0.4   0.0   0.0   0.00   0.00   0.00     0 .0001 1.961 6.297 0.861   0.00   1.68   5.35  1.00  0.45  1.00   6.3  0.74  0.88  0.05
 1974 323    18    13   4.4 10.78   0.3   1.8  1.08  0.11   0.6   0.4   0.0   0.0   0.00   0.00   0.00     0 .0001 1.961 6.299 0.970   0.00   1.69   4.95  1.00  0.51  1.00   6.3  0.74  1.03  0.04
 1974 324    19    14   4.0 10.86   0.3   1.8  1.08  0.12   0.6   0.4   0.0   0.0   0.00   0.00   0.00     0 .0002 1.962 6.300 1.051   0.00   1.70   5.00  1.00  0.55  1.00   6.3  0.74  1.17  0.03
 1974 325    20    15   7.0 11.01   0.4   1.9  1.00  0.13   0.7   0.5   0.0   0.0   0.00   0.00   0.00     0 .0002 1.962 6.304 0.952   0.00   1.63   5.02  1.00  0.50  1.00   6.3  0.74  0.38  0.09
 1974 326    21    16   7.9 11.16   0.4   1.9  0.87  0.14   0.9   0.6   0.0   0.0   0.00   0.00   0.00     0 .0002 1.962 6.302 0.828   0.00   1.50   5.12  1.00  0.43  1.00   6.3  0.74  0.29  0.13
 1974 327    22    17   8.2 11.33   0.4   1.9  0.74  0.15   1.0   0.7   0.0   0.0   0.00  -0.00   0.00     0 .0003 1.962 6.300 0.746   0.00   1.34   5.08  1.00  0.39  1.00   6.3  0.74  0.28  0.14
 1974 328    23    18   5.4 11.43   0.5   2.0  0.70  0.16   1.1   0.7   0.0   0.0   0.00   0.00   0.00     0 .0003 1.962 6.299 0.795   0.00   1.31   5.05  1.00  0.42  1.00   6.3  0.74  0.69  0.06
 1974 329    24    19   5.6 11.55   0.5   2.0  0.66  0.17   1.2   0.8   0.0   0.0   0.00   0.00   0.00     0 .0003 1.962 6.298 0.833   0.00   1.26   4.74  1.00  0.44  1.00   6.3  0.74  0.65  0.07
 1974 330    25    20   5.0 11.65   0.6   2.0  0.63  0.17   1.2   0.8   0.0   0.0   0.00   0.00   0.00     0 .0004 1.962 6.297 0.861   0.00   1.23   4.60  1.00  0.45  1.00   6.2  0.74  0.63  0.05
 1974 331    26    21   4.6 11.74   0.6   2.1  0.61  0.18   1.3   0.9   0.0   0.0   0.00   0.00   0.00     0 .0004 1.962 6.297 0.906   0.00   1.21   4.57  1.00  0.48  1.00   6.2  0.74  0.78  0.05
 1974 332    27    22   5.3 11.84   0.6   2.1  0.57  0.19   1.4   0.9   0.0   0.0   0.00   0.00   0.00     0 .0004 1.962 6.296 0.924   0.00   1.16   4.48  1.00  0.48  1.00   6.2  0.74  0.60  0.06
 1974 333    28    23   6.9 11.98   0.7   2.1  0.47  0.20   1.5   1.0   0.0   0.0   0.00  -0.00   0.00     0 .0005 1.962 6.295 0.874   0.00   1.00   4.40  1.00  0.46  1.00   6.2  0.74  0.27  0.10
 1974 334    29    24   7.8 12.07   0.7   2.2  0.40  0.21   1.6   1.0   0.0   0.0   0.00   0.00   0.00     0 .0005 1.961 6.293 0.855   0.00   0.89   4.37  1.00  0.45  1.00   6.2  0.74  0.36  0.08
 1974 335    30    25   8.7 12.15   0.7   2.2  0.32  0.22   1.7   1.1   0.0   0.0   0.00   0.00   0.00     0 .0006 1.962 6.292 0.831   0.00   0.74   4.37  1.00  0.44  1.00   6.2  0.74  0.33  0.09
 1974 336    31    26  11.0 12.26   0.7   2.2  0.19  0.23   1.8   1.2   0.0   0.0   0.00   0.00   0.00     0 .0007 1.961 6.291 0.787   0.00   0.47   4.40  1.00  0.41  1.00   6.2  0.74  0.26  0.13
 1974 337    32    27  11.1 12.38   0.8   2.3  0.06  0.25   2.0   1.3   0.0   0.0   0.00   0.00   0.00     0 .0008 1.961 6.289 0.757   0.00   0.17   4.44  1.00  0.40  1.00   6.2  0.74  0.29  0.13
 1974 338    33    28  10.0 12.48   0.8   2.3  0.00  0.26   2.1   1.4   0.0   0.0   0.00   0.00   0.00     0 .0009 1.956 6.168 0.749   0.00   0.00   4.26  0.98  0.39  1.00   6.2  0.74  0.33  0.13
 1974 339    34    29   6.2 12.54   0.9   2.4  0.00  0.26   2.1   1.4   0.0   0.0   0.00   0.00   0.00     0 .0009 1.944 6.142 0.813   0.00   0.00   4.10  0.98  0.43  0.99   6.2  0.74  0.78  0.06
 1974 340    35    30   8.1 12.62   0.9   2.4  0.00  0.27   2.2   1.4   0.0   0.0   0.00   0.00   0.00     0 .0010 1.926 6.055 0.861   0.00   0.00   3.97  0.96  0.45  0.98   6.2  0.74  0.62  0.10
 1974 341    36    31   9.4 12.71   1.0   2.5  0.00  0.28   2.2   1.5   0.0   0.0   0.00   0.00   0.00     0 .0011 1.907 5.881 0.872   0.00   0.00   3.82  0.94  0.46  0.97   6.2  0.74  0.42  0.13
 1974 342    37    32   9.8 12.81   1.1   2.5  0.00  0.29   2.3   1.5   0.0   0.0   0.00   0.00   0.00     0 .0012 1.890 5.725 0.886   0.00   0.00   3.75  0.91  0.47  0.96   6.2  0.74  0.43  0.14
 1974 343    38    33   7.5 12.89   1.1   2.6  0.00  0.30   2.3   1.5   0.0   0.0   0.00   0.00   0.00     0 .0013 1.878 5.712 0.937   0.00   0.00   3.70  0.91  0.49  0.96   6.2  0.74  0.72  0.09
 1974 344    39    34   3.3 12.92   1.1   2.6  0.00  0.30   2.3   1.6   0.0   0.0   0.00   0.00   0.00     0 .0013 1.883 5.744 0.991   0.00   0.00   3.67  0.91  0.52  0.96   6.2  0.74  2.00  0.03
 1974 345    40    35   2.2 12.94   1.2   2.7  0.00  0.31   2.4   1.6   0.0   0.0   0.00   0.00   0.00     0 .0014 1.888 5.772 1.038   0.00   0.00   3.62  0.92  0.55  0.96   6.2  0.74  2.00  0.02
 1974 346    41    36   4.5 12.99   1.2   2.7  0.00  0.31   2.4   1.6   0.0   0.0   0.00   0.00   0.00     0 .0014 1.893 5.802 1.091   0.00   0.00   3.64  0.92  0.58  0.97   6.2  0.74  1.45  0.04
 1974 347    42    37   3.6 13.02   1.2   2.7  0.00  0.32   2.4   1.6   0.0   0.0   0.00   0.00   0.00     0 .0015 1.898 5.829 1.137   0.00   0.00   3.56  0.93  0.60  0.97   6.2  0.74  1.69  0.03
 1974 348    43    38   4.5 13.07   1.3   2.8  0.00  0.33   2.5   1.6   0.0   0.0   0.00   0.00   0.00     0 .0015 1.903 5.856 1.184   0.00   0.00   3.50  0.93  0.63  0.97   6.2  0.74  1.32  0.05
 1974 349    44    39   4.9 13.12   1.3   2.8  0.00  0.34   2.5   1.7   0.0   0.0   0.00   0.00   0.00     0 .0016 1.907 5.883 1.230   0.00   0.00   3.40  0.94  0.65  0.97   6.2  0.74  1.15  0.05
 1974 350    45    40   6.3 13.18   1.4   2.9  0.00  0.35   2.5   1.7   0.0   0.0   0.00   0.00   0.00     0 .0017 1.898 5.856 1.251   0.00   0.00   3.41  0.93  0.66  0.97   6.2  0.74  0.65  0.07
 1974 351    46    41   4.8 13.23   1.4   2.9  0.00  0.36   2.6   1.7   0.0   0.0   0.00   0.00   0.00     0 .0017 1.899 5.877 1.288   0.00   0.00   3.31  0.94  0.68  0.97   6.2  0.74  0.94  0.05
 1974 352    47    42   5.6 13.28   1.5   3.0  0.00  0.36   2.6   1.8   0.0   0.0   0.00   0.00   0.00     0 .0018 1.898 5.885 1.320   0.00   0.00   3.27  0.94  0.70  0.97   6.2  0.74  0.85  0.06
 1974 353    48    43   6.5 13.35   1.6   3.0  0.00  0.37   2.7   1.8   0.0   0.0   0.00   0.00   0.00     0 .0019 1.889 5.870 1.340   0.00   0.00   3.25  0.93  0.71  0.96   6.2  0.74  0.71  0.08
 1974 354    49    44   9.4 13.44   1.6   3.1  0.00  0.38   2.7   1.8   0.0   0.0   0.00   0.00   0.00     0 .0020 1.877 5.726 1.332   0.00   0.00   3.21  0.91  0.70  0.96   6.2  0.74  0.39  0.15
 1974 355    50    45   9.4 13.54   1.7   3.2  0.00  0.39   2.8   1.9   0.0   0.0   0.00   0.00   0.00     0 .0022 1.865 5.609 1.336   0.00   0.00   3.23  0.89  0.71  0.95   6.2  0.74  0.42  0.15
 1974 356    51    46  10.0 13.64   1.7   3.2  0.00  0.40   2.8   1.9   0.0   0.0   0.00   0.00   0.00     0 .0023 1.853 5.488 1.335   0.00   0.00   3.23  0.87  0.71  0.94   6.2  0.74  0.41  0.16
 1974 357    52    47  10.2 13.74   1.8   3.3  0.00  0.41   2.9   1.9   0.0   0.0   0.00   0.00   0.00     0 .0025 1.842 5.386 1.329   0.00   0.00   3.20  0.86  0.70  0.94   6.2  0.74  0.42  0.17
 1974 358    53    48   7.6 13.82   1.9   3.4  0.00  0.41   3.0   2.0   0.0   0.0   0.00   0.00   0.00     0 .0026 1.836 5.395 1.348   0.00   0.00   3.19  0.86  0.71  0.94   6.2  0.74  0.70  0.11
 1974 359    54    49   6.9 13.89   2.0   3.5  0.00  0.42   3.0   2.0   0.0   0.0   0.00   0.00   0.00     0 .0027 1.839 5.432 1.372   0.00   0.00   3.26  0.87  0.73  0.94   6.2  0.74  0.86  0.09
 1974 360    55    50   7.9 13.96   2.0   3.5  0.00  0.43   3.1   2.1   0.0   0.0   0.00   0.00   0.00     0 .0029 1.834 5.433 1.388   0.00   0.00   3.27  0.87  0.73  0.94   6.2  0.74  0.68  0.11
 1974 361    56    51   9.8 14.06   2.1   3.6  0.00  0.43   3.2   2.1   0.0   0.0   0.00   0.00   0.00     0 .0030 1.826 5.361 1.387   0.00   0.00   3.27  0.85  0.73  0.93   6.2  0.74  0.47  0.17
 1974 362    57    52  10.5 14.17   2.2   3.7  0.00  0.44   3.2   2.1   0.0   0.0   0.00   0.06   0.00 .0093 .0032 1.820 5.270 1.385   0.00   0.00   3.28  0.84  0.73  0.93   6.2  0.74  0.42  0.19
 1974 363    58    53  10.4 14.27   2.3   3.8  0.00  0.45   3.3   2.2   0.0   0.0   0.00   0.06   0.00 .0185 .0034 1.819 5.284 1.404   0.00   0.00   3.31  0.84  0.74  0.93   6.2  0.74  0.63  0.13
 1974 364    59    54   4.1 14.31   2.3   3.8  0.00  0.46   3.3   2.2   0.0   0.0   0.00   0.02   0.00 .0221 .0035 1.830 5.339 1.432   0.00   0.00   3.22  0.85  0.76  0.93   6.2  0.74  2.00  0.01
 1974 365    60    55   5.0 14.36   2.3   3.8  0.00  0.47   3.3   2.2   0.0   0.0   0.00   0.03   0.00 .0266 .0036 1.838 5.394 1.461   0.00   0.00   3.21  0.86  0.77  0.94   6.2  0.74  1.66  0.05
 1975   1    61    56   6.0 14.42   2.4   3.9  0.00  0.47   3.4   2.2   0.0   0.0   0.00   0.03   0.00 .0319 .0037 1.845 5.449 1.486   0.00   0.00   3.23  0.87  0.79  0.94   6.2  0.74  1.52  0.06
 1975   2    62    57   7.5 14.50   2.5   3.9  0.00  0.48   3.4   2.3   0.0   0.0   0.00   0.04   0.00 .0385 .0038 1.852 5.507 1.509   0.00   0.00   3.28  0.88  0.80  0.94   6.2  0.74  1.09  0.08
 1975   3    63    58   7.2 14.57   2.5   4.0  0.00  0.49   3.5   2.3   0.0   0.0   0.00   0.04   0.00 .0450 .0039 1.859 5.560 1.534   0.00   0.00   3.28  0.89  0.81  0.95   6.2  0.74  1.28  0.07
 1975   4    64    59   4.0 14.61   2.6   4.0  0.00  0.50   3.5   2.3   0.0   0.0   0.00   0.02   0.00 .0486 .0040 1.866 5.600 1.555   0.00   0.00   3.22  0.89  0.83  0.95   6.2  0.74  2.00  0.02
 1975   5    65    60   5.1 14.66   2.6   4.0  0.00  0.51   3.5   2.3   0.0   0.0   0.00   0.03   0.00 .0531 .0041 1.872 5.640 1.576   0.00   0.00   3.21  0.90  0.84  0.95   6.2  0.74  2.00  0.05
 1975   6    66    61   8.4 14.75   2.7   4.1  0.00  0.51   3.6   2.4   0.0   0.0   0.00   0.05   0.00 .0607 .0043 1.877 5.678 1.591   0.00   0.00   3.28  0.91  0.85  0.96   6.2  0.74  0.94  0.10
 1975   7    67    62   6.7 14.81   2.8   4.2  0.00  0.52   3.7   2.4   0.0   0.0   0.00   0.04   0.00 .0666 .0044 1.883 5.718 1.612   0.00   0.00   3.25  0.91  0.86  0.96   6.2  0.74  1.88  0.05
 1975   8    68    63   6.9 14.88   2.8   4.2  0.00  0.53   3.7   2.4   0.0   0.0   0.00   0.04   0.00 .0727 .0046 1.887 5.756 1.628   0.00   0.00   3.27  0.92  0.87  0.96   6.2  0.74  1.57  0.06
 1975   9    69    64   7.2 14.95   2.9   4.3  0.00  0.53   3.8   2.5   0.0   0.0   0.00   0.04   0.00 .0792 .0047 1.891 5.792 1.642   0.00   0.00   3.32  0.92  0.87  0.96   6.2  0.74  1.51  0.07
 1975  10    70    65   8.1 15.03   3.0   4.4  0.00  0.53   3.9   2.5   0.0   0.0   0.00   0.05   0.00 .0864 .0049 1.895 5.829 1.654   0.00   0.00   3.40  0.93  0.88  0.97   6.2  0.74  1.07  0.10
 1975  11    71    66   8.9 15.12   3.1   4.5  0.00  0.54   3.9   2.6   0.0   0.0   0.00   0.06   0.00 .0947 .0051 1.895 5.822 1.662   0.00   0.00   3.45  0.93  0.89  0.97   6.2  0.74  0.77  0.13
 1975  12    72    67   7.9 15.20   3.2   4.6  0.00  0.54   4.0   2.6   0.0   0.0   0.00   0.05   0.00 0.102 .0052 1.899 5.857 1.674   0.00   0.00   3.51  0.94  0.89  0.97   6.2  0.74  1.12  0.09
 1975  13    73    68   5.6 15.26   3.2   4.6  0.00  0.55   4.0   2.7   0.0   0.0   0.00   0.04   0.00 0.107 .0053 1.903 5.884 1.689   0.00   0.00   3.46  0.94  0.90  0.97   6.2  0.74  2.00  0.04
 1975  14    74    69   7.8 15.34   3.3   4.7  0.00  0.56   4.1   2.7   0.0   0.0   0.00   0.05   0.00 0.115 .0055 1.904 5.890 1.697   0.00   0.00   3.49  0.94  0.91  0.97   6.2  0.74  0.85  0.12
 1975  15    75    70   8.4 15.42   3.4   4.8  0.00  0.58   4.2   2.8   0.0   0.0   0.00   0.05   0.00 0.123 .0057 1.898 5.877 1.698   0.00   0.00   3.45  0.94  0.91  0.97   6.2  0.74  0.76  0.14
 1975  16    76    71   4.8 15.47   3.5   4.8  0.00  0.59   4.2   2.8   0.0   0.0   0.00   0.03   0.00 0.127 .0058 1.902 5.900 1.709   0.00   0.00   3.38  0.94  0.91  0.97   6.2  0.74  2.00  0.03
 1975  17    77    72   4.8 15.51   3.5   4.9  0.00  0.60   4.3   2.8   0.0   0.0   0.00   0.03   0.00 0.132 .0059 1.906 5.922 1.720   0.00   0.00   3.33  0.95  0.92  0.97   6.2  0.74  2.00  0.05
 1975  18    78    73   2.5 15.54   3.5   4.9  0.00  0.60   4.3   2.8   0.0   0.0   0.00   0.02   0.00 0.134 .0060 1.909 5.940 1.728   0.00   0.00   3.32  0.95  0.93  0.97   6.2  0.74  2.00  0.00
 1975  19    79    74   3.5 15.57   3.5   4.9  0.00  0.62   4.3   2.8   0.0   0.0   0.00   0.02   0.00 0.137 .0060 1.913 5.958 1.736   0.00   0.00   3.24  0.95  0.93  0.98   6.2  0.74  2.00  0.04
 1975  20    80    75   3.9 15.61   3.6   4.9  0.00  0.63   4.3   2.8   0.0   0.0   0.00   0.03   0.00 0.141 .0061 1.915 5.975 1.744   0.00   0.00   3.23  0.96  0.93  0.98   6.2  0.74  2.00  0.03
 1975  21    81    76   5.1 15.66   3.6   5.0  0.00  0.65   4.3   2.9   0.0   0.0   0.00   0.03   0.00 0.146 .0063 1.919 5.992 1.752   0.00   0.00   3.13  0.96  0.94  0.98   6.2  0.74  1.21  0.07
 1975  22    82    77   6.4 15.73   3.7   5.1  0.00  0.65   4.4   2.9   0.0   0.0   0.00   0.04   0.00 0.152 .0064 1.921 6.011 1.758   0.00   0.00   3.19  0.96  0.94  0.98   6.2  0.74  1.10  0.08
 1975  23    83    78   4.9 15.78   3.8   5.1  0.00  0.67   4.4   2.9   0.0   0.0   0.00   0.03   0.00 0.156 .0065 1.924 6.026 1.765   0.00   0.00   3.13  0.96  0.95  0.98   6.2  0.74  2.00  0.04
 1975  24    84    79   6.5 15.84   3.9   5.2  0.00  0.69   4.5   3.0   0.0   0.0   0.00   0.04   0.00 0.163 .0067 1.917 6.017 1.762   0.00   0.00   3.05  0.96  0.95  0.98   6.2  0.74  0.80  0.11
 1975  25    85    80   7.8 15.92   4.0   5.3  0.00  0.70   4.6   3.0   0.0   0.0   0.00   0.05   0.00 0.170 .0069 1.911 5.977 1.756   0.00   0.00   3.05  0.96  0.95  0.98   6.2  0.74  0.66  0.14
 1975  26    86    81   4.7 15.97   4.0   5.3  0.00  0.72   4.6   3.0   0.0   0.0   0.00   0.03   0.00 0.174 .0070 1.915 5.993 1.763   0.00   0.00   2.93  0.96  0.95  0.98   6.2  0.74  1.97  0.04
 1975  27    87    82   4.2 16.01   4.0   5.3  0.00  0.73   4.6   3.1   0.0   0.0   0.00   0.03   0.00 0.178 .0071 1.917 6.008 1.768   0.00   0.00   2.94  0.96  0.95  0.98   6.2  0.74  2.00  0.03
 1975  28    88    83   4.1 16.05   4.1   5.4  0.00  0.73   4.6   3.1   0.0   0.0   0.00   0.04   0.00 0.184 .0073 1.919 6.022 1.772   0.00   0.00   2.95  0.97  0.96  0.98   6.2  0.74  2.00  0.04
 1975  29    89    84   5.7 16.11   4.1   5.4  0.00  0.74   4.7   3.1   0.0   0.0   0.00   0.05   0.00 0.191 .0074 1.922 6.037 1.777   0.00   0.00   2.98  0.97  0.96  0.98   6.2  0.74  1.02  0.08
 1975  30    90    85   7.8 16.18   4.2   5.5  0.00  0.75   4.8   3.1   0.0   0.0   0.00   0.07   0.00 0.202 .0076 1.912 5.940 1.753   0.00   0.00   2.94  0.95  0.95  0.98   6.2  0.74  0.45  0.17
 1975  31    91    86   9.5 16.28   4.3   5.6  0.00  0.76   4.8   3.2   0.0   0.0   0.00   0.09   0.00 0.214 .0079 1.905 5.774 1.734   0.00   0.00   2.94  0.93  0.94  0.97   6.2  0.74  0.32  0.24
 1975  32    92    87   6.8 16.35   4.4   5.6  0.00  0.77   4.9   3.2   0.0   0.0   0.00   0.06   0.00 0.224 .0081 1.901 5.775 1.731   0.00   0.00   2.89  0.93  0.94  0.97   6.2  0.74  0.68  0.10
 1975  33    93    88   4.5 16.39   4.4   5.7  0.00  0.78   4.9   3.2   0.0   0.0   0.00   0.04   0.00 0.230 .0082 1.905 5.803 1.738   0.00   0.00   2.87  0.93  0.95  0.97   6.2  0.74  1.94  0.04
 1975  34    94    89   4.8 16.44   4.5   5.7  0.00  0.79   4.9   3.3   0.0   0.0   0.00   0.04   0.00 0.236 .0084 1.908 5.829 1.745   0.00   0.00   2.87  0.94  0.95  0.98   6.1  0.74  1.09  0.06
 1975  35    95    90   3.5 16.48   4.5   5.7  0.00  0.80   4.9   3.3   0.0   0.0   0.00   0.03   0.00 0.241 .0085 1.911 5.851 1.750   0.00   0.00   2.86  0.94  0.96  0.98   6.1  0.74  2.00  0.02
 1975  36    96    91   3.5 16.51   4.5   5.8  0.00  0.81   4.9   3.3   0.0   0.0   0.00   0.03   0.00 0.245 .0086 1.914 5.872 1.755   0.00   0.00   2.81  0.95  0.96  0.98   6.1  0.74  1.64  0.04
 1975  37    97    92   2.5 16.53   4.5   5.8  0.00  0.82   4.9   3.3   0.0   0.0   0.00   0.02   0.00 0.249 .0087 1.916 5.890 1.759   0.00   0.00   2.78  0.95  0.96  0.98   6.1  0.74  2.00  0.01
 1975  38    98    93   4.9 16.58   4.6   5.8  0.00  0.84   5.0   3.3   0.0   0.0   0.00   0.05   0.00 0.255 .0088 1.901 5.878 1.749   0.00   0.00   2.70  0.95  0.96  0.97   6.1  0.74  0.66  0.10
 1975  39    99    94   3.6 16.62   4.6   5.9  0.00  0.86   5.0   3.3   0.0   0.0   0.00   0.03   0.00 0.260 .0089 1.905 5.897 1.754   0.00   0.00   2.64  0.95  0.96  0.97   6.1  0.74  2.00  0.03
 1975  40   100    95   2.6 16.65   4.7   5.9  0.00  0.88   5.0   3.3   0.0   0.0   0.00   0.02   0.00 0.264 .0090 1.909 5.914 1.758   0.00   0.00   2.57  0.95  0.97  0.98   6.1  0.74  2.00  0.03
 1975  41   101    96   2.9 16.68   4.7   5.9  0.00  0.89   5.0   3.3   0.0   0.0   0.00   0.03   0.00 0.267 .0091 1.911 5.930 1.761   0.00   0.00   2.56  0.96  0.97  0.98   6.1  0.74  2.00  0.03
 1975  42   102    97   4.6 21.00   4.8   6.0  0.00  0.90   5.1   3.3   0.0   0.0   0.00   0.04   0.00 0.273 .0093 1.914 5.947 1.765   0.00   0.00   2.57  0.96  0.97  0.98   6.1  0.74  1.22  0.07
 1975  43   103    98   7.6 21.04   4.8   6.0  0.00  0.91   5.1   3.4   0.0   0.0   0.00   0.07   0.00 0.284 .0095 1.908 5.740 1.736   0.00   0.00   2.56  0.93  0.96  0.98   6.1  0.74  0.28  0.29
 1975  44   104    99   6.6 21.07   4.9   6.1  0.00  0.92   5.2   3.4   0.0   0.0   0.00   0.06   0.00 0.293 .0098 1.898 5.669 1.710   0.00   0.00   2.53  0.92  0.95  0.97   6.1  0.74  0.44  0.19
 1975  45   105   100   3.0 21.08   4.9   6.1  0.00  0.94   5.2   3.4   0.0   0.0   0.00   0.03   0.00 0.297 .0099 1.901 5.699 1.716   0.00   0.00   2.50  0.92  0.95  0.97   6.1  0.74  2.00  0.02
 1975  46   106   101   2.4 21.09   5.0   6.2  0.00  0.94   5.2   3.5   0.0   0.0   0.00   0.02   0.00 0.300 .0100 1.904 5.726 1.721   0.00   0.00   2.49  0.93  0.96  0.97   6.1  0.74  2.00  0.03
 1975  47   107   102   3.5 21.11   5.0   6.2  0.00  0.96   5.3   3.5   0.0   0.0   0.00   0.03   0.00 0.305 .0101 1.907 5.753 1.726   0.00   0.00   2.49  0.93  0.96  0.98   6.1  0.74  1.11  0.08
 1975  48   108   103   5.7 21.14   5.1   6.3  0.00  0.96   5.3   3.5   0.0   0.0   0.00   0.05   0.00 0.312 .0103 1.904 5.707 1.719   0.00   0.00   2.50  0.92  0.96  0.97   6.1  0.74  0.53  0.16
 1975  49   109   104   4.9 21.16   5.2   6.4  0.00  0.98   5.4   3.6   0.0   0.0   0.00   0.04   0.00 0.318 .0105 1.899 5.700 1.710   0.00   0.00   2.49  0.92  0.96  0.97   6.1  0.74  0.66  0.12
 1975  50   110   105   4.4 21.18   5.3   6.5  0.00  1.01   5.4   3.6   0.0   0.0   0.00   0.04   0.00 0.324 .0106 1.881 5.690 1.697   0.00   0.00   2.39  0.92  0.95  0.96   6.1  0.74  0.61  0.14
 1975  51   111   106   4.2 21.20   5.4   6.5  0.00  1.04   5.5   3.6   0.0   0.0   0.00   0.04   0.00 0.329 .0108 1.864 5.682 1.685   0.00   0.00   2.30  0.92  0.95  0.95   6.1  0.74  0.62  0.13
 1975  52   112   107   3.4 21.21   5.5   6.6  0.00  1.08   5.5   3.7   0.0   0.0   0.00   0.03   0.00 0.334 .0109 1.868 5.706 1.690   0.00   0.00   2.23  0.93  0.95  0.96   6.1  0.74  0.93  0.09
 1975  53   113   108   4.1 21.23   5.6   6.7  0.00  1.11   5.6   3.7   0.0   0.0   0.00   0.03   0.00 0.339 .0111 1.857 5.705 1.682   0.00   0.00   2.17  0.93  0.95  0.95   6.1  0.74  0.69  0.13
 1975  54   114   109   5.1 21.26   5.7   6.8  0.00  1.14   5.6   3.7   0.0   0.0   0.00   0.04   0.00 0.345 .0113 1.841 5.659 1.654   0.00   0.00   2.09  0.92  0.94  0.94   6.1  0.74  0.51  0.19
 1975  55   115   110   5.0 21.28   5.8   6.9  0.00  1.19   5.7   3.8   0.0   0.0   0.00   0.04   0.00 0.351 .0116 1.823 5.630 1.634   0.00   0.00   1.99  0.92  0.93  0.93   6.1  0.74  0.55  0.19
 1975  56   116   111   2.4 21.29   5.8   6.9  0.00  1.20   5.7   3.8   0.0   0.0   0.00   0.02   0.00 0.354 .0117 1.830 5.658 1.642   0.00   0.00   1.99  0.92  0.93  0.94   6.0  0.74  2.00  0.03
 1975  57   117   112   5.1 21.31   5.9   7.0  0.00  1.25   5.8   3.8   0.0   0.0   0.00   0.04   0.00 0.361 .0119 1.813 5.611 1.614   0.00   0.00   1.91  0.92  0.92  0.93   6.0  0.73  0.52  0.21
 1975  58   118   113   3.7 21.33   6.0   7.1  0.00  1.31   5.8   3.9   0.0   0.0   0.00   0.03   0.00 0.365 .0121 1.824 5.641 1.623   0.00   0.00   1.83  0.92  0.93  0.94   6.0  0.73  0.97  0.12
 1975  59   119   114   4.6 21.35   6.1   7.3  0.00  1.36   5.9   3.9   0.0   0.0   0.00   0.04   0.00 0.371 .0123 1.812 5.638 1.617   0.00   0.00   1.77  0.92  0.93  0.93   6.0  0.73  0.70  0.18
 1975  60   120   115   7.0 21.38   6.3   7.4  0.00  1.38   6.0   3.9   0.0   0.0   0.00   0.06   0.00 0.380 .0127 1.804 5.540 1.577   0.00   0.00   1.75  0.91  0.91  0.93   6.0  0.73  0.45  0.30
 1975  61   121   116   7.3 21.43   6.4   7.5  0.00  1.41   6.1   4.0   0.0   0.0   0.00   0.06   0.00 0.389 .0131 1.797 5.455 1.548   0.00   0.00   1.74  0.89  0.89  0.92   6.0  0.73  0.45  0.30
 1975  62   122   117   8.8 21.49   6.5   7.6  0.00  1.43   6.2   4.1   0.0   0.0   0.00   0.07   0.00 0.400 .0136 1.790 5.282 1.506   0.00   0.00   1.74  0.87  0.87  0.92   6.0  0.73  0.32  0.43
 1975  63   123   118   6.8 21.53   6.7   7.8  0.00  1.47   6.3   4.2   0.0   0.0   0.00   0.05   0.00 0.409 .0140 1.780 5.256 1.486   0.00   0.00   1.71  0.86  0.87  0.91   6.0  0.73  0.52  0.27
 1975  64   124   119   6.1 21.57   6.8   7.9  0.00  1.49   6.4   4.2   0.0   0.0   0.00   0.05   0.00 0.417 .0144 1.783 5.268 1.489   0.00   0.00   1.72  0.87  0.87  0.92   6.0  0.73  0.69  0.21
 1975  65   125   120   6.9 21.61   7.0   8.0  0.00  1.50   6.5   4.3   0.0   0.0   0.00   0.05   0.00 0.425 .0148 1.779 5.237 1.479   0.00   0.00   1.73  0.86  0.87  0.91   6.0  0.73  0.53  0.28
 1975  66   126   121   7.1 21.66   7.1   8.2  0.00  1.53   6.7   4.4   0.0   0.0   0.00   0.06   0.00 0.434 .0152 1.773 5.206 1.464   0.00   0.00   1.73  0.86  0.87  0.91   6.0  0.73  0.52  0.30
 1975  67   127   122   4.5 21.69   7.3   8.3  0.00  1.56   6.8   4.5   0.0   0.0   0.00   0.03   0.00 0.440 .0155 1.781 5.249 1.477   0.00   0.00   1.72  0.87  0.88  0.92   5.9  0.73  0.88  0.14
 1975  68   128   123   4.8 21.72   7.4   8.4  0.00  1.58   6.8   4.5   0.0   0.0   0.00   0.04   0.00 0.447 .0158 1.782 5.266 1.477   0.00   0.00   1.72  0.87  0.88  0.92   5.9  0.73  0.69  0.18
 1975  69   129   124   3.2 21.74   7.5   8.5  0.00  1.60   6.9   4.6   0.1   0.0   0.00   0.03   0.00 0.451 .0160 1.792 5.311 1.490   0.00   0.00   1.72  0.88  0.89  0.92   5.9  0.73  1.30  0.10
 1975  70   130   125   4.0 21.76   7.6   8.6  0.00  1.63   7.0   4.6   0.1   0.0   0.00   0.03   0.00 0.456 .0163 1.797 5.342 1.497   0.00   0.00   1.72  0.88  0.90  0.92   5.9  0.73  0.84  0.14
 1975  71   131   126   4.8 21.80   7.7   8.7  0.00  1.63   7.1   4.7   0.1   0.0   0.00   0.04   0.00 0.463 .0166 1.802 5.359 1.503   0.00   0.00   1.74  0.89  0.90  0.93   5.9  0.73  0.75  0.16
 1975  72   132   127   3.7 21.82   7.8   8.8  0.00  1.65   7.2   4.8   0.1   0.0   0.00   0.03   0.00 0.468 .0168 1.810 5.399 1.512   0.00   0.00   1.76  0.90  0.91  0.93   5.9  0.73  1.17  0.10
 1975  73   133   128   3.0 21.84   7.9   8.9  0.00  1.68   7.3   4.8   0.1   0.0   0.00   0.03   0.00 0.472 .0171 1.818 5.435 1.521   0.00   0.00   1.75  0.90  0.92  0.94   5.9  0.73  1.10  0.10
 1975  74   134   129   2.6 21.86   8.0   9.0  0.00  1.70   7.3   4.8   0.1   0.0   0.00   0.02   0.00 0.476 .0172 1.826 5.467 1.530   0.00   0.00   1.74  0.91  0.93  0.94   5.9  0.73  1.44  0.07
[...]
 1975 114   174   169  11.9 23.26  21.0  21.6  0.00  4.76  16.8  11.0   0.3   0.0   0.00   0.18   0.00 0.898 .0455 1.823 4.974 1.198   0.00   0.00   1.31  0.89  0.96  0.95   5.3  0.70  1.82  1.79
 1975 115   175   170  11.6 23.34  22.7  23.2  0.00  4.92  18.3  11.9   0.3   0.0   0.00   0.18   0.00 0.928 .0477 1.830 5.047 1.203   0.00   0.00   1.37  0.91  0.99  0.96   5.2  0.70  1.51  1.61
 1975 116   176   171  13.9 23.43  24.6  25.1  0.00  5.13  20.0  13.0   0.4   0.0   0.00   0.22   0.00 0.963 .0503 1.837 5.113 1.192   0.00   0.00   1.44  0.93  1.00  0.96   5.2  0.70  1.32  1.98
 1975 117   177   172  10.6 23.50  26.0  26.4  0.00  5.18  21.2  13.9   0.4   0.0   0.00   0.17   0.00     1 .0524 1.841 5.157 1.170   0.00   0.00   1.51  0.94  1.00  0.97   5.2  0.70  1.39  1.33
 1975 118   178   173  13.8 23.60  27.6  28.0  0.00  5.37  22.6  14.8   0.4   0.0   0.00   0.15   0.00 1.014 .0552 1.823 5.045 1.128   0.00   0.00   1.53  0.92  0.99  0.96   5.1  0.70  0.68  2.38
 1975 119   179   174   9.6 23.67  28.6  29.0  0.00  5.55  23.4  15.3   0.4   0.0   0.00   0.22   0.00 1.051 .0572 1.806 4.923 1.074   0.00   0.00   1.50  0.91  0.96  0.95   5.1  0.69  0.53  1.86
 1975 120   180   175   7.9 23.72  29.4  29.7  0.00  5.79  23.9  15.6   0.4   0.0   0.00   0.18   0.00 1.081 .0589 1.785 4.879 1.049   0.00   0.00   1.44  0.90  0.95  0.94   5.1  0.69  0.60  1.35
 1975 121   181   176  10.1 23.79  30.6  30.9  0.00  5.92  24.9  16.3   0.5   0.0   0.00   0.23   0.00 1.120 .0612 1.775 4.814 1.030   0.00   0.00   1.46  0.89  0.95  0.94   5.0  0.69  0.63  1.87
 1975 122   182   177  12.7 23.87  31.3  31.5  0.00  6.10  25.4  16.5   0.5   0.0   0.00   0.28   0.00 1.168 .0642 1.762 4.605 0.973   0.00   0.00   1.43  0.86  0.92  0.93   5.0  0.69  0.31  2.34
 1975 123   183   178   7.3 23.92  32.4  32.7  0.00  6.47  26.2  17.1   0.5   0.0   0.00   0.16   0.00 1.196 .0660 1.775 4.664 0.981   0.00   0.00   1.39  0.87  0.94  0.94   5.0  0.69  2.00  1.16
 1975 124   184   179   7.5 23.96  33.8  34.0  0.00  6.89  27.2  17.7   0.5   0.0   0.00   0.16   0.00 1.225 .0680 1.788 4.718 0.988   0.00   0.00   1.35  0.89  0.96  0.94   5.0  0.69  2.00  1.40
 1975 125   185   180   8.2 24.02  35.4  35.5  0.00  7.26  28.3  18.4   0.6   0.0   0.00   0.18   0.00 1.257 .0702 1.797 4.769 0.992   0.00   0.00   1.33  0.90  0.98  0.95   4.9  0.69  1.08  1.52
 1975 126   186   181   9.5 24.08  36.2  36.3  0.00  7.53  28.8  18.7   0.6   0.0   0.00   0.21   0.00 1.293 .0729 1.780 4.625 0.936   0.00   0.00   1.28  0.88  0.94  0.94   4.9  0.69  0.37  2.15
 1975 127   187   182  10.6 24.08  38.1  38.3  0.00  7.72  30.5  20.0   0.6   0.0   0.00   0.08   0.00 1.308 .0761 1.784 4.667 0.937   0.00   0.00   1.32  0.89  0.95  0.95   4.8  0.68  0.91  2.17
 1975 128   188   183  12.2 24.08  41.2  41.3  0.00  8.11  33.2  21.7   0.7   0.0   0.00   0.10   0.00 1.326 .0798 1.793 4.732 0.946   0.00   0.00   1.37  0.91  0.96  0.95   4.8  0.68  2.00  3.05
 1975 129   189   184  10.3 24.08  44.4  44.4  0.00  8.51  35.9  23.5   0.8   0.0   0.00   0.08   0.00 1.340 .0831 1.802 4.785 0.951   0.00   0.00   1.40  0.93  0.98  0.96   4.7  0.68  2.00  3.17
 1975 130   190   185  11.0 24.08  47.7  47.8  0.00  8.92  38.9  25.4   0.9   0.0   0.00   0.09   0.00 1.355 .0867 1.809 4.826 0.955   0.00   0.00   1.44  0.95  0.99  0.96   4.6  0.68  2.00  3.38
 1975 131   191   186   9.2 24.08  50.3  50.4  0.00  9.20  41.2  26.9   1.0   0.0   0.00   0.08   0.00 1.369 .0899 1.815 4.852 0.957   0.00   0.00   1.48  0.96  0.99  0.97   4.6  0.67  2.00  2.61
 1975 132   192   187   7.2 24.08  52.0  52.0  0.00  9.42  42.6  27.8   1.1   0.0   0.00   0.06   0.00 1.379 .0924 1.819 4.868 0.957   0.00   0.00   1.49  0.97  1.00  0.97   4.6  0.67  2.00  1.67
 1975 133   193   188  11.0 30.02  55.3  55.3  0.00  9.71  45.6  29.7   1.1   0.0   0.00   0.09   0.00 1.394 .0964 1.824 4.885 0.950   0.00   0.00   1.53  0.98  1.00  0.97   4.5  0.67  2.00  3.28
 1975 134   194   189  10.1 30.48  57.9  57.9  0.00  9.97  47.9  31.2   1.2   0.0   0.00   0.09   0.00 1.409 0.100 1.827 4.894 0.943   0.00   0.00   1.56  0.99  1.00  0.98   4.5  0.67  2.00  2.61
 1975 135   195   190   8.4 30.85  59.6  59.6  0.00 10.11  49.5  32.3   1.3   0.0   0.00   0.08   0.00 1.421 0.103 1.830 4.892 0.937   0.00   0.00   1.59  1.00  1.00  0.98   4.4  0.67  2.00  1.74
 1975 136   196   191   6.9 31.16  60.7  60.7  0.00 10.18  50.5  32.9   1.3   0.0   0.00   0.06   0.00 1.431 0.106 1.833 4.862 0.933   0.00   0.00   1.61  1.00  1.00  0.98   4.4  0.67  2.00  1.08
 1975 137   197   192   7.2 31.48  61.4  61.3  0.00 10.23  51.1  33.4   1.3   0.0   0.00   0.00   0.00 1.431 0.109 1.835 4.831 0.928   0.00   0.00   1.62  1.00  1.00  0.98   4.4  0.66  2.00  0.67
 1975 138   198   193   8.4 31.85  62.6  62.5  0.00 10.36  52.2  34.1   1.3   0.0   0.00   0.00   0.00 1.431 0.112 1.837 4.795 0.922   0.00   0.00   1.63  1.00  1.00  0.99   4.3  0.66  2.00  1.20
 1975 139   199   194  10.2 32.30  65.2  65.1  0.00 11.02  54.1  35.2   1.5   0.0   0.00   0.00   0.00 1.431 0.116 1.840 4.751 0.915   0.00   0.00   1.56  1.00  1.00  0.99   4.3  0.66  2.00  2.57
 1975 140   200   195  11.8 32.82  68.4  68.3  0.00 11.58  56.8  36.8   1.7   0.0   0.00   0.11   0.00 1.449 0.121 1.842 4.700 0.908   0.00   0.00   1.53  1.00  1.00  0.99   4.2  0.66  2.00  3.26
 1975 141   201   196  11.7 33.34  71.4  71.3  0.00 12.14  59.2  38.3   2.0   0.0   0.00   0.11   0.00 1.467 0.126 1.844 4.649 0.900   0.00   0.00   1.50  1.00  1.00  0.99   4.1  0.65  2.00  3.01
 1975 142   202   197   7.8 33.69  72.1  72.0  0.00 12.35  59.7  38.6   2.1   0.0   0.00   0.07   0.00 1.479 0.130 1.844 4.615 0.895   0.00   0.00   1.48  1.00  1.00  1.00   4.0  0.65  2.00  0.72
 1975 143   203   198   7.2 34.01  73.1  73.0  0.00 12.75  60.3  38.9   2.1   0.0   0.00   0.07   0.00 1.490 0.133 1.845 4.584 0.890   0.00   0.00   1.44  1.00  1.00  1.00   4.0  0.65  2.00  0.98
 1975 144   204   199   6.1 34.28  73.6  73.5  0.00 12.93  60.5  39.0   2.2   0.0   0.00   0.06   0.00 1.500 0.136 1.846 4.557 0.886   0.00   0.00   1.42  1.00  1.00  1.00   4.0  0.65  2.00  0.47
 1975 145   205   200   9.7 34.72  75.4  75.2  0.00 13.23  62.0  39.9   2.4   0.0   0.00   0.09   0.00 1.515 0.141 1.846 4.515 0.879   0.00   0.00   1.41  1.00  1.00  1.00   3.9  0.64  2.00  1.81
 1975 146   206   201  11.8 35.24  77.7  77.5  0.00 13.76  63.7  40.9   2.6   0.0   0.00   0.11   0.00 1.533 0.146 1.845 4.464 0.871   0.00   0.00   1.37  1.00  1.00  1.00   3.8  0.64  2.00  2.26
 1975 147   207   202  12.6 35.80  79.8  79.6  0.00 14.19  65.4  41.9   2.8   0.0   0.00   0.00   0.00 1.533 0.153 1.842 4.410 0.863   0.00   0.00   1.35  1.00  1.00  1.00   3.7  0.64  2.00  2.16
 1975 148   208   203  14.4 36.44  82.3  82.1  0.00 14.59  67.5  43.1   3.1   0.0   0.00  -0.00   0.00 1.533 0.161 1.839 4.347 0.853   0.00   0.00   1.34  1.00  1.00  1.00   3.7  0.63  2.00  2.44
 1975 149   209   204   9.0 36.84  83.3  83.1  0.00 14.73  68.3  43.7   3.2   0.0   0.00   0.00   0.00 1.533 0.165 1.837 4.308 0.847   0.00   0.00   1.34  1.00  1.00  1.00   3.6  0.63  2.00  0.99
 1975 150   210   205   7.7 37.18  84.5  84.3  0.00 15.03  69.3  44.1   3.3   0.0   0.00   0.07   0.00 1.545 0.170 1.835 4.275 0.842   0.00   0.00   1.32  1.00  1.00  1.00   3.6  0.63  2.00  1.28
 1975 151   211   206   6.1 37.45  85.0  84.8  0.00 15.45  69.4  44.2   3.4   0.0   0.00   0.05   0.00 1.555 0.173 1.833 4.248 0.838   0.00   0.00   1.27  1.00  1.00  1.00   3.5  0.63  2.00  0.51
 1975 152   212   207   7.6 37.79  85.9  85.7  0.00 15.79  69.9  44.4   3.5   0.0   0.00   0.07   0.00 1.567 0.177 1.832 4.216 0.833   0.00   0.00   1.24  1.00  1.00  1.00   3.5  0.63  2.00  0.89
 1975 153   213   208   7.7 38.13  86.8  86.5  0.00 16.17  70.3  44.6   3.7   0.0   0.00   0.07   0.00 1.580 0.182 1.830 4.182 0.828   0.00   0.00   1.20  1.00  1.00  1.00   3.5  0.62  2.00  0.82
 1975 154   214   209   7.5 38.46  87.5  87.3  0.00 16.60  70.6  44.8   3.8   0.0   0.00   0.06   0.00 1.591 0.186 1.828 4.150 0.823   0.00   0.00   1.17  1.00  1.00  1.00   3.4  0.62  2.00  0.77
 1975 155   215   210   8.4 38.84  88.4  88.1  0.00 16.89  71.2  45.0   3.9   0.0   0.00   0.07   0.00 1.605 0.192 1.826 4.114 0.817   0.00   0.00   1.15  1.00  1.00  1.00   3.4  0.62  2.00  0.87
 1975 156   216   211  12.5 39.39  90.0  89.7  0.00 17.19  72.5  45.7   4.1   0.0   0.00   0.11   0.00 1.625 0.200 1.823 4.059 0.809   0.00   0.00   1.14  1.00  1.00  1.00   3.3  0.62  2.00  1.62
 1975 157   217   212  17.8 40.21  92.3  92.0  0.00 17.72  74.3  46.6   4.6   0.0   0.00   0.15   0.00 1.654 0.211 1.819 3.982 0.796   0.00   0.00   1.12  1.00  1.00  1.00   3.2  0.61  2.00  2.32
 1975 158   218   213  18.0 41.11  92.3  92.0  0.00 18.21  73.8  45.3   5.4   0.0   0.00   0.66   0.10 1.654 0.223 1.814 3.900 0.778   0.00   0.00   1.06  1.00  1.00  1.00   3.0  0.60  2.00  0.00
 1975 159   219   214  15.7 41.89  92.3  92.0  0.00 18.69  73.3  44.0   6.2   0.0   0.00   1.18   0.19 1.654 0.234 1.811 3.830 0.762   0.00   0.00   1.01  1.00  1.00  1.00   2.8  0.59  2.00  0.00
 1975 160   220   215  15.9 42.69  92.3  91.9  0.00 19.13  72.8  42.9   6.9   0.0   0.00   1.63   0.28 1.654 0.245 1.807 3.758 0.746   0.00   0.00   0.97  1.00  1.00  1.00   2.7  0.58  2.00  0.00
 1975 161   221   216  15.3 43.45  92.3  91.9  0.00 19.56  72.4  41.7   7.6   0.0   0.00   2.12   0.36 1.654 0.256 1.803 3.689 0.731   0.00   0.00   0.93  1.00  1.00  1.00   2.6  0.58  2.00  0.00
 1975 162   222   217  16.9 44.29  92.3  91.9  0.00 20.00  71.9  40.6   8.4   0.0   0.00   2.52   0.45 1.654 0.268 1.799 3.614 0.714   0.00   0.00   0.89  1.00  1.00  1.00   2.4  0.57  2.00  0.00
 1975 163   223   218  17.9 45.19  92.3  91.9  0.00 20.39  71.5  39.4   9.0   0.0   0.00   3.20   0.55 1.654 0.281 1.794 3.533 0.696   0.00   0.00   0.85  1.00  1.00  1.00   2.3  0.56  2.00  0.00
 1975 164   224   219  18.0 46.09  92.3  91.9  0.00 20.74  71.1  38.1   9.5   0.0   0.00   4.07   0.65 1.654 0.295 1.790 3.452 0.678   0.00   0.00   0.82  1.00  1.00  1.00   2.2  0.55  2.00  0.00
 1975 165   225   220  17.5 46.96  92.3  91.9  0.00 20.92  71.0  36.9   9.7   0.0   0.00   5.43   0.75 1.654 0.308 1.785 3.373 0.661   0.00   0.00   0.80  1.00  1.00  1.00   2.1  0.54  2.00  0.00
 1975 166   226   221  14.9 47.71  92.3  91.9  0.00 21.09  70.8  35.8   9.9   0.0   0.00   6.67   0.83 1.654 0.320 1.781 3.306 0.646   0.00   0.00   0.79  1.00  1.00  1.00   2.0  0.54  2.00  0.00
 1975 167   227   222  10.4 48.23  92.3  91.9  0.00 21.26  70.6  34.8  10.1   0.0   0.00   7.58   0.89 1.654 0.328 1.779 3.260 0.635   0.00   0.00   0.77  1.00  1.00  1.00   1.9  0.53  2.00  0.00
 1975 168   228   223  13.8 48.92  92.3  91.8  0.00 21.48  70.4  34.1  10.5   0.0   0.00   8.05   0.96 1.654 0.339 1.775 3.198 0.622   0.00   0.00   0.75  1.00  1.00  1.00   1.9  0.53  2.00  0.00
 1975 169   229   224  13.4 49.58  92.3  91.8  0.00 21.73  70.1  33.2  10.9   0.0   0.00   8.68   1.03 1.654 0.350 1.772 3.138 0.608   0.00   0.00   0.73  1.00  1.00  1.00   1.8  0.52  2.00  0.00
 1975 170   230   225  15.5 51.43  92.3  91.8  0.00 21.92  69.9  32.3  11.1   0.0   0.00   9.52   1.12 1.654 0.363 1.769 3.086 0.596   0.00   0.00   0.71  1.00  1.00  1.00   1.7  0.52  2.00  0.00
 1975 171   231   226  16.8 54.79  92.3  91.8  0.00 22.14  69.7  31.5  11.5   0.0   0.00  10.00   1.20 1.654 0.376 1.765 3.052 0.588   0.00   0.00   0.69  1.00  1.00  1.00   1.7  0.51  2.00  0.00
 1975 172   232   227  17.5 58.30  92.3  91.8  0.00 22.31  69.5  30.8  11.9   0.0   0.00  10.29   1.28 1.654 0.391 1.762 3.017 0.579   0.00   0.00   0.67  1.00  1.00  1.00   1.6  0.51  2.00  0.00
 1975 173   233   228  16.0 63.73  92.3  91.8  0.00 22.45  69.3  30.2  12.2   0.0   0.00  10.65   1.35 1.654 0.404 1.759 2.985 0.571   0.00   0.00   0.66  1.00  1.00  1.00   1.6  0.50  2.00  0.00
 1975 174   234   229  13.8 70.09  92.3  91.8  0.00 22.47  69.3  29.7  12.3   0.0   0.00  11.23   1.41 1.654 0.416 1.756 2.958 0.564   0.00   0.00   0.65  1.00  1.00  1.00   1.5  0.50  2.00  0.00
 1975 175   235   230  17.3 71.42  92.3  91.8  0.00 22.53  69.2  29.2  12.9   0.2   0.00  11.16   1.49 1.654 0.430 1.752 2.923 0.556   2.00   0.00   0.63  1.00  1.00  1.00   1.5  0.50  2.00  0.00
 1975 176   236   231  14.4 72.53  92.3  91.7  0.00 22.55  69.2  28.6  13.4   2.0   0.03   9.48   1.56 1.654 0.443 1.749 2.894 0.549   2.00   0.00   0.60  1.00  1.00  1.00   1.4  0.49  2.00  0.00
 1975 177   237   232  15.7 73.73  92.3  91.7  0.00 22.58  69.2  28.1  13.3   6.0   0.09   6.36   1.63 1.654 0.456 1.746 2.863 0.541   2.00   0.00   0.56  1.00  1.00  1.00   1.4  0.49  2.00  0.00
 1975 178   238   233  14.1 74.82  92.3  91.7  0.00 22.56  69.2  27.6  13.1  10.7   0.15   2.52   1.70 1.654 0.468 1.743 2.835 0.534   2.00   0.00   0.52  1.00  1.00  1.00   1.4  0.49  2.00  0.00
 1975 179   239   234  11.5 75.71  92.9  92.3  0.00 22.17  70.1  27.1  12.9  14.8   0.21   0.20   1.75 1.654 0.477 1.715 2.812 0.528   2.00   0.00   0.50  1.00  1.00  0.98   1.4  0.48  0.60  0.94
 1975 180   240   235  12.2 76.65  93.4  92.8  0.00 21.09  71.7  24.8  12.5  20.1   0.28   0.21   1.81 1.654 0.488 1.629 2.610 0.517   2.00   0.00   0.47  0.94  0.99  0.94   1.4  0.48  0.11  4.78
 1975 181   241   236  14.2 77.74  93.9  93.3  0.00 20.22  73.1  20.8  12.0  27.9   0.38   0.22   1.88 1.654 0.500 1.561 2.208 0.496   1.95   0.00   0.42  0.80  0.96  0.90   1.3  0.48  0.06  8.52
 1975 182   242   237  14.9 78.88  94.4  93.7  0.00 19.52  74.2  17.3  11.6  34.1   0.46   0.64   2.12 1.654 0.512 1.507 1.886 0.478   1.73   0.00   0.39  0.69  0.94  0.87   1.3  0.47  0.04 11.13
 1975 183   243   238  15.6 80.02  94.8  94.1  0.00 18.96  75.2  14.5  11.2  39.4   0.52   0.51   2.35 1.654 0.525 1.463 1.629 0.463   1.48   0.00   0.37  0.60  0.93  0.85   1.3  0.47  0.03 13.82
 1975 184   244   239  14.9 80.30  95.2  94.5  0.00 18.50  76.0  12.4  10.9  43.8   0.58   0.31   2.53 1.654 0.537 1.428 1.423 0.451   1.30   0.00   0.36  0.53  0.91  0.83   1.3  0.47  0.03 14.75
 1975 185   245   240  16.8 80.62  95.6  94.9  0.00 18.12  76.7  10.7  10.7  47.1   0.61   0.25   2.72 1.654 0.552 1.399 1.259 0.441   1.11   0.00   0.36  0.48  0.89  0.81   1.2  0.47  0.02 18.21
 1975 186   246   241  14.1 80.88  95.9  95.2  0.00 17.82  77.4   9.4  10.5  49.9   0.64   0.19   2.89 1.654 0.563 1.377 1.127 0.432   1.02   0.00   0.36  0.43  0.88  0.80   1.2  0.47  0.03 13.81
 1975 187   247   242  16.3 81.19  96.2  95.5  0.00 17.58  77.9   8.1  10.3  52.0   0.67   0.28   3.21 1.654 0.577 1.359 1.021 0.426   1.00   0.00   0.35  0.40  0.87  0.79   1.2  0.47  0.02 17.99
 1975 188   248   243  17.0 81.52  96.6  95.8  0.00 17.38  78.4   7.1  10.2  53.9   0.69   0.22   3.52 1.654 0.591 1.344 0.937 0.421   1.00   0.00   0.34  0.37  0.87  0.78   1.1  0.46  0.02 18.64
 1975 189   249   244  18.1 81.86  96.9  96.1  0.00 17.21  78.9   6.3  10.1  55.4   0.70   0.17   3.82 1.654 0.606 1.332 0.870 0.417   1.00   0.00   0.33  0.35  0.87  0.77   1.1  0.46  0.02 19.79
 1975 190   250   245  17.5 82.19  97.1  96.4  0.00 17.07  79.3   5.7  10.0  56.6   0.71   0.13   4.11 1.654 0.621 1.323 0.816 0.413   1.00   0.00   0.33  0.33  0.86  0.77   1.1  0.46  0.01 19.15
 1975 191   251   246  17.7 82.52  97.4  96.6  0.00 16.96  79.7   5.1   9.9  57.6   0.72   0.10   4.38 1.654 0.635 1.315 0.773 0.411   1.00   0.00   0.32  0.32  0.86  0.77   1.0  0.46  0.01 19.37
 1975 192   252   247  18.2 82.86  97.7  96.9  0.00 16.86  80.0   4.7   9.9  58.4   0.73   0.08   4.65 1.654 0.650 1.308 0.738 0.409   1.00   0.00   0.32  0.31  0.87  0.76   1.0  0.46  0.01 19.89
 1975 193   253   248  15.3 83.15  97.9  97.1  0.00 16.78  80.3   4.4   9.8  59.1   0.74   0.03   4.78 1.654 0.663 1.303 0.710 0.407   1.00   0.00   0.32  0.31  0.87  0.76   1.0  0.46  0.02 16.23
 1975 194   254   249  19.0 83.51  98.9  98.0  0.00 16.70  81.3   4.2   9.8  60.4   0.74   0.03   4.92 1.654 0.679 1.298 0.688 0.405   1.00   0.00   0.32  0.30  0.87  0.76   1.0  0.45  0.04 20.85
 1975 195   255   250  20.2 83.89  99.1  98.2  0.00 16.64  81.6   3.9   9.8  60.8   0.75   0.04   5.17 1.654 0.695 1.294 0.671 0.404   1.00   0.00   0.32  0.30  0.88  0.76   0.9  0.45  0.01 22.06
 1975 196   256   251  17.6 84.23  99.3  98.4  0.00 16.58  81.8   3.6   9.8  61.3   0.75   0.03   5.40 1.654 0.710 1.291 0.657 0.403   1.00   0.00   0.32  0.30  0.88  0.76   0.9  0.45  0.01 19.25
 1975 197   257   252  17.8 84.56  99.7  98.8  0.00 16.53  82.3   3.4   9.7  61.8   0.75   0.02   5.63 1.654 0.724 1.288 0.645 0.403   1.00   0.00   0.32  0.30  0.89  0.75   0.9  0.45  0.02 19.43
 1975 198   258   253  18.5 84.91  99.9  99.0  0.00 16.49  82.5   3.2   9.7  62.2   0.75   0.02   5.84 1.654 0.739 1.286 0.636 0.402   1.00   0.00   0.32  0.30  0.89  0.75   0.8  0.45  0.01 20.07
 1975 199   259   254  16.8 85.23 110.8 109.9  0.00 16.45  93.4   3.1   9.7  73.1   0.78   0.01   5.96 1.654 0.753 1.284 0.629 0.402   1.03   0.00   0.37  0.30  0.90  0.75   0.8  0.45  0.59 18.33
 1975 200   260   255  16.2 85.54 114.3 113.3  0.00 16.41  96.9   3.0   9.7  76.7   0.79   0.01   6.07 1.654 0.766 1.282 0.623 0.401   1.00   0.00   0.41  0.31  0.90  0.75   0.8  0.45  0.20 17.68
 1975 201   261   256  17.9 85.87 115.4 114.5  0.00 16.37  98.1   2.9   9.7  78.0   0.79   0.00   6.18 1.654 0.781 1.280 0.619 0.401   1.00   0.00   0.42  0.31  0.91  0.75   0.8  0.44  0.06 19.37
 1975 202   262   257  15.8 86.17 115.7 114.7  0.00 16.34  98.4   2.7   9.7  78.2   0.80   0.01   6.37 1.654 0.794 1.279 0.615 0.401   1.00   0.00   0.42  0.31  0.91  0.75   0.8  0.44  0.01 16.90
 1975 203   263   258  17.0 86.49 115.9 114.9  0.00 16.31  98.6   2.6   9.7  78.5   0.80   0.00   6.48 1.654 0.808 1.277 0.612 0.401   1.00   0.00   0.42  0.32  0.92  0.75   0.7  0.44  0.01 18.37
 1975 204   264   259  17.2 86.82 116.0 115.0  0.00 16.28  98.8   2.5   9.7  78.7   0.80   0.00   6.66 1.654 0.822 1.276 0.609 0.401   1.00   0.00   0.42  0.32  0.93  0.75   0.7  0.44  0.01 18.65
 1975 205   265   260  13.4 87.07 116.2 115.2  0.00 16.25  99.0   2.4   9.7  78.9   0.80   0.00   6.83 1.654 0.832 1.275 0.608 0.400   1.00   0.00   0.42  0.33  0.93  0.75   0.7  0.44  0.01 12.35
 1975 206   266   261  13.9 87.33 116.7 115.7  0.00 16.22  99.5   2.2   9.7  79.5   0.80   0.00   7.04 1.654 0.844 1.273 0.606 0.400   1.00   0.00   0.43  0.33  0.94  0.75   0.7  0.44  0.04 13.20
 1975 207   267   262  18.0 87.67 116.9 115.9  0.00 16.20  99.7   2.0   9.7  79.6   0.80   0.00   7.33 1.654 0.858 1.272 0.605 0.400   1.00   0.00   0.43  0.34  0.95  0.75   0.7  0.43  0.01 19.27
 1975 208   268   263  19.2 88.04 117.0 116.0  0.00 16.17  99.8   1.8   9.7  79.8   0.80   0.00   7.65 1.654 0.874 1.271 0.604 0.400   1.00   0.00   0.43  0.35  0.95  0.75   0.6  0.43  0.01 20.58
 1975 209   269   264  20.5 88.42 117.2 116.1  0.00 16.14 100.0   1.6   9.6  80.0   0.80   0.00   8.02 1.654 0.890 1.270 0.603 0.400   1.00   0.00   0.43  0.36  0.96  0.75   0.6  0.43  0.01 21.89
 1975 210   270   265  20.9 88.82 117.3 116.3  0.00 16.11 100.2   1.4   9.6  80.1   0.80   0.00   8.39 1.654 0.907 1.269 0.602 0.400   1.00   0.00   0.43  0.37  0.97  0.75   0.6  0.42  0.01 22.16
 1975 211   271   266  21.2 89.22 117.5 116.4  0.00 16.07 100.3   1.2   9.5  80.3   0.80   0.00   8.76 1.654 0.924 1.268 0.602 0.400   1.00   0.00   0.43  0.38  0.98  0.75   0.5  0.42  0.01 22.48
 1975 212   272   267  20.2 89.60 117.6 116.5  0.00 16.04 100.5   1.0   9.5  80.4   0.80   0.00   9.08 1.654 0.940 1.267 0.601 0.400   1.00   0.00   0.44  0.39  0.99  0.75   0.5  0.42  0.01 21.35
 1975 213   273   268  20.2 89.98 117.7 116.6  0.00 16.01 100.6   0.8   9.4  80.6   0.80   0.00   9.41 1.654 0.956 1.266 0.600 0.400   1.00   0.00   0.44  0.40  1.00  0.75   0.5  0.42  0.01 21.37
 1975 214   274   269  19.3 90.91 117.9 116.7  0.00 15.98 100.7   0.6   9.4  80.7   0.80   0.00   9.73 1.654 0.972 1.265 0.600 0.400   1.00   0.00   0.44  0.41  1.00  0.75   0.5  0.41  0.01 20.41
