*Soil Inorganic Nitrogen daily output file

*DSSAT Cropping System Model Ver. 4.8.2.010 -develop  JUL 08, 2024 16:11:18

*RUN   1        : 0 KG N/HA                 CSCER048 RORO7401    1
 MODEL          : CSCER048 - Wheat
 EXPERIMENT     : RORO7401 WH N RESPONSE,ROTHAMSTED  8FE(N)  (DSSAT3)
 DATA PATH      : C:\DSSAT48\Wheat\
 TREATMENT  1   : 0 KG N/HA                 CSCER048
  
!                                                                                                                                      NO3 (ppm) at soil dep. (cm):                                                    NH4 (ppm) at soil dep. (cm):                                                    Total Inorganic N @dep(ppm):
!                                                                                                                                       0-5    5-15   15-25   25-35   35-45   45-55   55-65   65-95  95-125 125-155     0-5    5-15   15-25   25-35   35-45   45-55   55-65   65-95  95-125 125-155     0-5    5-15   15-25   25-35   35-45   45-55   55-65   65-95  95-125 125-155
@YEAR DOY   DAS  NAPC  NI#M    NIAD    NITD    NHTD   NURTD    NMNC    NITC    NDNC    NIMC    AMLC   NNMNC    NUCM    NLCC    TDNC    NI1D    NI2D    NI3D    NI4D    NI5D    NI6D    NI7D    NI8D    NI9D    NI10    NH1D    NH2D    NH3D    NH4D    NH5D    NH6D    NH7D    NH8D    NH9D    NH10    NT1D    NT2D    NT3D    NT4D    NT5D    NT6D    NT7D    NT8D    NT9D    NT10    
 1974 304     0     0     0    78.7    44.4    34.3     0.0    0.00    0.00    0.00    0.00    0.00    0.00    0.00    0.00    0.00    6.00     5.5     5.0    4.00    4.00    3.00    3.00    2.00    0.50    0.50    3.00    3.00    3.00    3.00    3.00    2.00    2.00    2.00    1.00    0.50    9.00    8.50    8.00    7.00    7.00    5.00    5.00    4.00    1.50    1.00
 1974 305     1     0     0    78.7    47.4    31.3     0.0    0.00    3.06    0.00    0.01    0.00   -0.00    0.00    0.00    0.00    5.39     5.5     5.3    4.55    4.30    3.20    3.21    2.22    0.62    0.56    2.99    2.90    2.83    2.71    2.70    1.79    1.79    1.78    0.88    0.44    8.37    8.40    8.12    7.26    7.00    5.00    5.00    4.00    1.50    1.00
 1974 306     2     0     0    78.7    50.2    28.5     0.0    0.00    5.84    0.00    0.01    0.00   -0.01    0.00    0.00    0.00    5.22     5.5     5.4    5.06    4.57    3.39    3.40    2.41    0.72    0.61    2.93    2.80    2.69    2.44    2.43    1.61    1.60    1.58    0.78    0.39    8.15    8.25    8.11    7.50    7.00    5.00    5.00    4.00    1.50    1.00
 1974 307     3     0     0    78.7    52.8    25.8     0.0    0.00    8.48    0.00    0.02    0.00   -0.02    0.00    0.00    0.00    4.53     5.6     5.6    5.52    4.91    3.56    3.57    2.59    0.81    0.66    2.84    2.68    2.54    2.19    2.17    1.44    1.42    1.40    0.69    0.34    7.37    8.26    8.16    7.71    7.08    4.99    4.99    3.99    1.50    1.00
 1974 308     4     0     0    78.6    55.1    23.6     0.0    0.00   10.72    0.00    0.05    0.00   -0.04    0.00    0.00    0.00    4.60     5.5     5.6    5.56    5.56    3.72    3.72    2.75    0.89    0.70    2.77    2.56    2.39    2.11    1.93    1.27    1.26    1.24    0.60    0.30    7.37    8.04    7.99    7.68    7.49    4.99    4.98    3.99    1.50    1.00
 1974 309     5     0     0    78.6    57.2    21.4     0.0    0.00   12.84    0.00    0.10    0.00   -0.09    0.00    0.00    0.00    4.79     5.5     5.7    5.65    5.84    3.96    3.86    2.90    0.97    0.74    2.66    2.41    2.24    2.03    1.71    1.12    1.11    1.08    0.53    0.26    7.45    7.92    7.90    7.68    7.55    5.08    4.97    3.98    1.49    1.00
 1974 310     6     0     0    78.5    59.2    19.3     0.0    0.01   14.84    0.00    0.18    0.00   -0.17    0.00    0.00    0.00    5.07     5.6     5.8    5.74    6.06    4.09    3.98    3.03    1.04    0.78    2.51    2.25    2.07    1.95    1.51    0.98    0.97    0.95    0.46    0.22    7.58    7.85    7.86    7.68    7.57    5.07    4.96    3.98    1.49    1.00
 1974 311     7     0     0    78.4    60.8    17.6     0.0    0.01   16.50    0.00    0.27    0.00   -0.26    0.00    0.00    0.00    5.13     5.8     5.9    5.82    6.11    4.24    4.10    3.14    1.10    0.81    2.36    2.08    1.92    1.87    1.44    0.86    0.85    0.83    0.40    0.19    7.49    7.83    7.86    7.69    7.55    5.10    4.95    3.97    1.49    1.00
 1974 312     8     0     0    78.3    62.3    16.0     0.0    0.01   17.97    0.01    0.37    0.00   -0.36    0.00    0.00    0.00    5.13     5.9     6.1    5.91    6.17    4.38    4.20    3.25    1.15    0.83    2.23    1.92    1.77    1.79    1.38    0.75    0.74    0.72    0.34    0.17    7.36    7.78    7.85    7.70    7.55    5.14    4.94    3.97    1.49    1.00
 1974 313     9     0     0    78.2    63.6    14.5     0.0    0.01   19.32    0.02    0.48    0.00   -0.47    0.00    0.00    0.00    4.87     6.0     6.2    6.01    6.24    4.53    4.29    3.34    1.19    0.86    2.09    1.76    1.64    1.71    1.32    0.65    0.64    0.62    0.30    0.14    6.96    7.77    7.88    7.72    7.55    5.19    4.93    3.96    1.49    1.00
 1974 314    10     0     0    78.0    64.9    13.1     0.0    0.02   20.56    0.03    0.63    0.00   -0.61    0.00    0.00    0.00    3.86     6.1     6.5    6.22    6.34    4.73    4.37    3.42    1.24    0.88    1.97    1.59    1.50    1.63    1.25    0.56    0.55    0.54    0.25    0.12    5.83    7.71    8.04    7.85    7.60    5.29    4.93    3.96    1.49    1.00
 1974 315    11     0     0    77.8    65.9    11.9     0.0    0.02   21.62    0.06    0.77    0.00   -0.75    0.01    0.00    0.00    3.23     5.9     6.7    6.47    6.47    5.00    4.44    3.49    1.27    0.89    1.84    1.46    1.38    1.56    1.20    0.48    0.47    0.46    0.22    0.11    5.07    7.41    8.12    8.03    7.66    5.48    4.91    3.95    1.49    1.00
 1974 316    12     0     0    77.6    66.7    10.9     0.0    0.02   22.54    0.12    0.91    0.00   -0.89    0.02    0.00    0.00    3.18     5.7     6.7    6.59    6.57    5.30    4.55    3.56    1.30    0.91    1.71    1.35    1.29    1.50    1.15    0.40    0.40    0.39    0.19    0.09    4.90    7.04    7.99    8.10    7.72    5.70    4.95    3.95    1.49    1.00
 1974 317    13     0     0    77.4    67.4    10.0     0.0    0.02   23.30    0.16    1.04    0.00   -1.01    0.02    0.00    0.00    1.43     4.0     6.0    6.63    6.68    5.92    5.53    4.15    1.33    0.92    1.58    1.23    1.20    1.45    1.10    0.38    0.35    0.34    0.16    0.08    3.01    5.18    7.17    8.08    7.78    6.30    5.88    4.48    1.49    1.00
 1974 318    14     0     0    77.3    67.9     9.4     0.0    0.03   23.82    0.22    1.11    0.00   -1.08    0.03    0.00    0.00    1.02     3.5     5.6    6.51    6.66    6.04    5.62    4.45    1.44    0.93    1.50    1.15    1.14    1.41    1.07    0.37    0.33    0.29    0.14    0.07    2.52    4.62    6.76    7.92    7.74    6.41    5.95    4.73    1.58    1.00
 1974 319    15     0     0    77.1    68.2     8.9     0.0    0.03   24.20    0.28    1.18    0.00   -1.15    0.07    0.00    0.00    0.92     3.2     5.4    6.43    6.65    6.11    5.67    4.53    1.59    0.94    1.41    1.08    1.09    1.37    1.04    0.35    0.32    0.28    0.12    0.06    2.33    4.32    6.45    7.80    7.69    6.46    5.99    4.80    1.71    1.00
 1974 320    16     0     0    76.9    68.5     8.5     0.0    0.03   24.56    0.33    1.25    0.00   -1.21    0.12    0.00    0.00    0.89     3.0     5.2    6.35    6.63    6.16    5.72    4.57    1.74    0.95    1.32    1.01    1.03    1.34    1.02    0.34    0.31    0.26    0.10    0.05    2.21    4.05    6.19    7.69    7.65    6.50    6.03    4.84    1.84    1.00
 1974 321    17     0     0    76.8    68.7     8.0     0.0    0.04   24.89    0.39    1.31    0.00   -1.28    0.17    0.00    0.00    0.42     1.8     3.8    5.38    6.11    6.14    5.90    4.94    2.48    1.24    1.23    0.95    0.98    1.30    0.99    0.33    0.30    0.25    0.09    0.05    1.65    2.75    4.75    6.68    7.10    6.46    6.20    5.19    2.57    1.29
 1974 322    18     0     0    76.4    68.8     7.7     0.0    0.04   25.15    0.46    1.37    0.00   -1.33    0.21    0.15    0.00    0.42     1.7     3.6    5.23    6.04    6.12    5.91    4.91    2.58    1.35    1.14    0.88    0.93    1.26    0.96    0.32    0.29    0.24    0.09    0.04    1.56    2.58    4.50    6.49    7.00    6.44    6.20    5.15    2.66    1.39
 1974 323    19     0     0    76.0    68.7     7.4     0.0    0.04   25.39    0.54    1.42    0.00   -1.38    0.25    0.37    0.00    0.32     1.5     3.3    5.00    5.90    6.09    5.94    4.97    2.69    1.44    1.06    0.83    0.89    1.23    0.94    0.30    0.28    0.24    0.08    0.04    1.39    2.30    4.21    6.23    6.84    6.40    6.22    5.21    2.78    1.48
 1974 324    20     0     0    75.6    68.5     7.1     0.0    0.05   25.59    0.61    1.45    0.00   -1.40    0.29    0.65    0.00    0.29     1.2     3.0    4.67    5.69    6.02    5.95    5.08    2.84    1.53    1.00    0.78    0.85    1.20    0.91    0.30    0.27    0.23    0.08    0.04    1.29    2.03    3.82    5.87    6.60    6.31    6.22    5.31    2.92    1.57
 1974 325    21     0     0    74.8    67.9     6.9     0.0    0.05   25.78    0.69    1.46    0.00   -1.41    0.32    1.36    0.00    0.17     0.9     2.4    4.05    5.23    5.79    5.90    5.18    3.13    1.73    0.96    0.75    0.82    1.17    0.89    0.29    0.26    0.22    0.08    0.04    1.13    1.66    3.21    5.23    6.12    6.08    6.16    5.40    3.21    1.77
 1974 326    22     0     0    74.3    67.6     6.7     0.0    0.05   25.95    0.78    1.46    0.00   -1.41    0.36    1.76    0.00    0.19     0.9     2.3    3.92    5.13    5.73    5.88    5.12    3.19    1.80    0.91    0.72    0.79    1.15    0.87    0.28    0.26    0.22    0.08    0.04    1.11    1.59    3.05    5.07    6.00    6.01    6.14    5.33    3.27    1.84
 1974 327    23     0     0    73.8    67.3     6.5     0.0    0.06   26.15    0.87    1.48    0.00   -1.42    0.39    2.11    0.00    0.22     0.9     2.2    3.85    5.06    5.69    5.87    5.07    3.22    1.84    0.86    0.67    0.75    1.12    0.85    0.27    0.25    0.21    0.07    0.04    1.08    1.54    2.93    4.97    5.92    5.96    6.12    5.27    3.29    1.88
 1974 328    24     0     0    73.3    67.1     6.2     0.0    0.06   26.37    0.94    1.52    0.00   -1.45    0.43    2.42    0.00    0.25     0.9     2.1    3.77    4.99    5.64    5.84    5.05    3.24    1.88    0.78    0.62    0.71    1.09    0.83    0.26    0.24    0.20    0.07    0.04    1.04    1.49    2.85    4.86    5.82    5.90    6.08    5.25    3.31    1.91
 1974 329    25     0     0    72.3    66.4     5.9     0.0    0.06   26.59    1.01    1.55    0.00   -1.49    0.48    3.23    0.00    0.27     0.9     2.1    3.63    4.77    5.40    5.63    5.01    3.30    1.95    0.72    0.56    0.66    1.06    0.81    0.25    0.23    0.19    0.07    0.04    0.99    1.43    2.75    4.69    5.58    5.66    5.87    5.20    3.37    1.99
 1974 330    26     0     0    72.1    66.5     5.6     0.0    0.07   26.85    1.04    1.61    0.00   -1.54    0.52    3.37    0.00    0.32     0.9     2.1    3.63    4.75    5.38    5.62    5.00    3.31    1.97    0.64    0.50    0.61    1.02    0.78    0.24    0.22    0.18    0.07    0.04    0.97    1.39    2.73    4.65    5.53    5.62    5.84    5.19    3.38    2.00
 1974 331    27     0     0    71.9    66.6     5.3     0.0    0.07   27.09    1.07    1.65    0.00   -1.58    0.55    3.48    0.00    0.35     0.9     2.1    3.64    4.74    5.35    5.60    5.00    3.32    1.98    0.58    0.46    0.56    0.99    0.75    0.23    0.21    0.17    0.06    0.04    0.93    1.36    2.70    4.62    5.49    5.58    5.81    5.18    3.39    2.01
 1974 332    28     0     0    71.7    66.7     5.0     0.0    0.07   27.31    1.09    1.68    0.00   -1.60    0.59    3.58    0.00    0.34     0.9     2.1    3.65    4.74    5.33    5.58    5.01    3.33    1.99    0.54    0.43    0.52    0.95    0.72    0.22    0.20    0.17    0.06    0.04    0.87    1.33    2.67    4.60    5.46    5.55    5.78    5.18    3.39    2.02
 1974 333    29     0     0    71.5    66.7     4.8     0.0    0.08   27.50    1.11    1.68    0.00   -1.60    0.62    3.66    0.00    0.30     0.9     2.1    3.66    4.75    5.33    5.58    5.01    3.34    2.00    0.51    0.41    0.49    0.92    0.70    0.21    0.19    0.16    0.06    0.04    0.81    1.28    2.63    4.58    5.45    5.54    5.77    5.17    3.40    2.03
 1974 334    30     0     0    71.1    66.5     4.6     0.0    0.08   27.68    1.13    1.69    0.00   -1.61    0.65    4.03    0.00    0.32     0.8     2.1    3.55    4.63    5.22    5.48    5.03    3.39    2.05    0.49    0.39    0.46    0.89    0.68    0.20    0.19    0.15    0.06    0.03    0.81    1.23    2.52    4.44    5.30    5.42    5.67    5.18    3.45    2.08
 1974 335    31     0     0    71.0    66.6     4.4     0.0    0.08   27.87    1.14    1.72    0.00   -1.63    0.68    4.07    0.00    0.34     0.8     2.1    3.57    4.64    5.22    5.49    5.03    3.41    2.05    0.47    0.36    0.43    0.86    0.65    0.19    0.18    0.15    0.05    0.03    0.81    1.20    2.49    4.43    5.29    5.41    5.67    5.17    3.46    2.09
 1974 336    32     0     0    70.8    66.6     4.2     0.0    0.09   28.07    1.15    1.76    0.00   -1.67    0.71    4.21    0.00    0.36     0.8     2.0    3.54    4.60    5.17    5.45    5.04    3.44    2.08    0.43    0.33    0.40    0.82    0.62    0.18    0.17    0.14    0.05    0.03    0.79    1.16    2.44    4.36    5.22    5.35    5.62    5.18    3.49    2.11
 1974 337    33     0     0    70.6    66.8     3.9     0.0    0.10   28.28    1.16    1.84    0.00   -1.74    0.74    4.24    0.00    0.39     0.8     2.0    3.56    4.61    5.17    5.45    5.04    3.44    2.08    0.36    0.28    0.36    0.78    0.60    0.17    0.16    0.13    0.05    0.03    0.75    1.12    2.40    4.35    5.21    5.34    5.61    5.17    3.49    2.12
 1974 338    34     0     0    70.5    66.9     3.6     0.0    0.10   28.49    1.17    1.95    0.00   -1.85    0.78    4.24    0.00    0.42     0.8     2.1    3.60    4.64    5.18    5.45    5.05    3.44    2.09    0.27    0.22    0.32    0.74    0.56    0.16    0.15    0.12    0.05    0.03    0.68    1.06    2.39    4.34    5.20    5.33    5.60    5.17    3.49    2.12
 1974 339    35     0     0    70.3    67.1     3.2     0.0    0.11   28.71    1.18    2.08    0.00   -1.97    0.82    4.24    0.00    0.47     0.8     2.1    3.63    4.66    5.18    5.46    5.05    3.44    2.09    0.14    0.16    0.29    0.70    0.53    0.14    0.14    0.12    0.05    0.03    0.62    1.01    2.38    4.33    5.20    5.33    5.59    5.17    3.49    2.12
 1974 340    36     0     0    70.2    67.2     2.9     0.0    0.12   28.91    1.19    2.19    0.00   -2.07    0.87    4.24    0.00    0.51     0.9     2.1    3.66    4.69    5.19    5.46    5.05    3.44    2.09    0.04    0.09    0.26    0.66    0.51    0.13    0.12    0.11    0.04    0.03    0.56    0.95    2.36    4.33    5.20    5.32    5.58    5.16    3.49    2.12
 1974 341    37     0     0    70.0    67.3     2.7     0.0    0.13   29.08    1.19    2.30    0.00   -2.17    0.94    4.24    0.00    0.48     0.9     2.1    3.69    4.71    5.19    5.46    5.05    3.45    2.09    0.00    0.04    0.23    0.62    0.48    0.12    0.12    0.10    0.04    0.03    0.48    0.90    2.35    4.32    5.19    5.31    5.58    5.16    3.49    2.12
 1974 342    38     0     0    69.8    67.4     2.5     0.0    0.14   29.24    1.20    2.39    0.00   -2.25    0.99    4.24    0.00    0.42     0.9     2.1    3.72    4.73    5.19    5.46    5.06    3.45    2.09    0.00    0.00    0.20    0.59    0.46    0.11    0.11    0.10    0.04    0.03    0.42    0.85    2.33    4.31    5.19    5.31    5.57    5.16    3.49    2.12
 1974 343    39     0     0    69.7    67.4     2.3     0.0    0.15   29.38    1.20    2.48    0.00   -2.33    1.05    4.24    0.00    0.35     0.8     2.1    3.74    4.75    5.20    5.47    5.06    3.45    2.09    0.00    0.00    0.17    0.56    0.43    0.10    0.10    0.09    0.04    0.03    0.35    0.80    2.31    4.30    5.19    5.30    5.57    5.15    3.49    2.12
 1974 344    40     0     0    69.6    67.4     2.2     0.0    0.16   29.50    1.21    2.55    0.00   -2.39    1.12    4.24    0.00    0.20     0.7     2.1    3.77    4.80    5.22    5.48    5.07    3.45    2.09    0.00    0.00    0.14    0.53    0.42    0.09    0.09    0.09    0.04    0.03    0.20    0.73    2.27    4.30    5.21    5.32    5.57    5.16    3.49    2.13
 1974 345    41     0     0    69.5    67.4     2.1     0.0    0.17   29.60    1.22    2.59    0.00   -2.42    1.15    4.24    0.00    0.14     0.7     2.0    3.76    4.84    5.26    5.51    5.07    3.47    2.09    0.00    0.00    0.13    0.51    0.40    0.09    0.09    0.09    0.04    0.03    0.14    0.66    2.18    4.27    5.23    5.35    5.60    5.16    3.51    2.13
 1974 346    42     0     0    69.4    67.4     2.0     0.0    0.18   29.68    1.24    2.61    0.00   -2.43    1.17    4.27    0.00    0.11     0.6     1.9    3.71    4.85    5.31    5.56    5.08    3.48    2.11    0.00    0.00    0.13    0.49    0.39    0.08    0.08    0.08    0.04    0.03    0.11    0.60    2.07    4.20    5.24    5.40    5.64    5.17    3.52    2.14
 1974 347    43     0     0    68.8    66.9     2.0     0.0    0.19   29.74    1.26    2.61    0.00   -2.42    1.21    4.79    0.00    0.10     0.5     1.8    3.45    4.60    5.14    5.44    5.10    3.58    2.19    0.00    0.00    0.12    0.48    0.37    0.08    0.08    0.08    0.04    0.03    0.10    0.55    1.89    3.93    4.97    5.22    5.52    5.18    3.61    2.23
 1974 348    44     0     0    68.8    66.8     1.9     0.0    0.20   29.81    1.27    2.61    0.00   -2.42    1.25    4.83    0.00    0.11     0.5     1.7    3.41    4.59    5.15    5.46    5.10    3.58    2.20    0.00    0.00    0.11    0.47    0.36    0.08    0.08    0.08    0.04    0.03    0.11    0.53    1.84    3.88    4.96    5.23    5.54    5.18    3.62    2.24
 1974 349    45     0     0    68.7    66.8     1.9     0.0    0.20   29.87    1.27    2.61    0.00   -2.42    1.29    4.87    0.00    0.12     0.5     1.7    3.37    4.57    5.15    5.48    5.11    3.59    2.21    0.00    0.00    0.11    0.46    0.35    0.08    0.08    0.07    0.03    0.03    0.12    0.52    1.79    3.82    4.92    5.23    5.55    5.18    3.62    2.24
 1974 350    46     0     0    68.6    66.8     1.8     0.0    0.20   29.93    1.28    2.61    0.00   -2.41    1.35    4.92    0.00    0.12     0.5     1.7    3.33    4.55    5.15    5.48    5.12    3.60    2.22    0.00    0.00    0.10    0.44    0.34    0.07    0.07    0.07    0.03    0.03    0.12    0.50    1.75    3.77    4.89    5.22    5.55    5.19    3.63    2.25
 1974 351    47     0     0    68.3    66.5     1.7     0.0    0.21   29.99    1.28    2.61    0.00   -2.41    1.39    5.16    0.00    0.12     0.5     1.6    3.23    4.44    5.05    5.40    5.12    3.64    2.26    0.00    0.00    0.10    0.43    0.33    0.07    0.07    0.07    0.03    0.03    0.12    0.49    1.68    3.66    4.77    5.12    5.47    5.19    3.68    2.29
 1974 352    48     0     0    68.2    66.5     1.7     0.0    0.21   30.05    1.29    2.62    0.00   -2.40    1.44    5.20    0.00    0.13     0.5     1.6    3.22    4.43    5.04    5.40    5.12    3.65    2.27    0.00    0.00    0.09    0.42    0.32    0.07    0.07    0.07    0.03    0.03    0.13    0.50    1.66    3.63    4.75    5.11    5.46    5.18    3.68    2.30
 1974 353    49     0     0    68.1    66.4     1.6     0.0    0.22   30.12    1.29    2.62    0.00   -2.40    1.50    5.27    0.00    0.13     0.5     1.6    3.19    4.41    5.01    5.36    5.12    3.66    2.28    0.00    0.00    0.09    0.40    0.31    0.07    0.07    0.06    0.03    0.03    0.13    0.50    1.64    3.60    4.72    5.07    5.43    5.18    3.69    2.31
 1974 354    50     0     0    68.0    66.4     1.6     0.0    0.23   30.18    1.29    2.62    0.00   -2.39    1.55    5.27    0.00    0.13     0.5     1.5    3.19    4.41    5.01    5.36    5.12    3.66    2.28    0.00    0.00    0.08    0.39    0.30    0.06    0.06    0.06    0.03    0.03    0.13    0.50    1.62    3.58    4.71    5.07    5.42    5.18    3.69    2.31
 1974 355    51     0     0    67.9    66.4     1.5     0.0    0.24   30.25    1.30    2.65    0.00   -2.41    1.61    5.27    0.00    0.11     0.5     1.5    3.18    4.42    5.01    5.36    5.13    3.66    2.28    0.00    0.00    0.07    0.37    0.29    0.06    0.06    0.06    0.03    0.03    0.11    0.49    1.59    3.55    4.70    5.07    5.42    5.19    3.69    2.31
 1974 356    52     0     0    67.8    66.4     1.4     0.0    0.25   30.32    1.30    2.69    0.00   -2.43    1.67    5.27    0.00    0.08     0.5     1.5    3.17    4.42    5.02    5.37    5.14    3.66    2.28    0.00    0.00    0.07    0.36    0.28    0.05    0.06    0.06    0.03    0.03    0.08    0.46    1.56    3.52    4.70    5.07    5.42    5.20    3.69    2.31
 1974 357    53     0     0    67.7    66.3     1.4     0.0    0.27   30.38    1.32    2.74    0.00   -2.47    1.74    5.31    0.00    0.04     0.4     1.5    3.14    4.42    5.02    5.37    5.13    3.67    2.29    0.00    0.00    0.06    0.34    0.27    0.05    0.05    0.05    0.03    0.03    0.04    0.43    1.52    3.48    4.68    5.07    5.43    5.18    3.70    2.32
 1974 358    54     0     0    67.6    66.2     1.3     0.0    0.29   30.45    1.33    2.78    0.00   -2.49    1.81    5.31    0.00    0.04     0.4     1.4    3.11    4.40    5.03    5.38    5.15    3.67    2.29    0.00    0.00    0.06    0.33    0.26    0.05    0.05    0.05    0.03    0.03    0.04    0.40    1.48    3.44    4.66    5.07    5.43    5.20    3.70    2.32
 1974 359    55     0     0    67.4    66.1     1.3     0.0    0.32   30.52    1.34    2.83    0.00   -2.51    1.88    5.34    0.00    0.03     0.4     1.4    3.08    4.39    5.03    5.39    5.14    3.68    2.30    0.00    0.00    0.06    0.31    0.25    0.04    0.05    0.05    0.03    0.03    0.03    0.35    1.43    3.39    4.64    5.08    5.44    5.19    3.71    2.33
 1974 360    56     0     0    67.3    66.0     1.3     0.0    0.34   30.58    1.36    2.86    0.00   -2.51    1.96    5.39    0.00    0.01     0.3     1.3    3.00    4.40    5.08    5.43    5.15    3.69    2.31    0.00    0.00    0.05    0.30    0.24    0.04    0.04    0.05    0.03    0.03    0.01    0.27    1.31    3.30    4.64    5.12    5.48    5.20    3.72    2.34
 1974 361    57     0     0    67.1    65.9     1.2     0.0    0.37   30.63    1.39    2.88    0.00   -2.50    2.04    5.44    0.00    0.01     0.2     1.2    2.84    4.34    5.11    5.48    5.16    3.71    2.32    0.00    0.00    0.05    0.29    0.23    0.04    0.04    0.05    0.03    0.03    0.02    0.24    1.21    3.13    4.57    5.15    5.53    5.21    3.74    2.36
 1974 362    58     0     0    67.0    65.7     1.2     0.0    0.40   30.67    1.43    2.90    0.00   -2.50    2.12    5.51    0.00    0.02     0.2     1.1    2.73    4.22    5.09    5.51    5.18    3.74    2.34    0.00    0.00    0.05    0.29    0.23    0.04    0.04    0.05    0.03    0.03    0.02    0.22    1.14    3.01    4.45    5.12    5.55    5.23    3.77    2.38
 1974 363    59     0     0    66.8    65.5     1.2     0.0    0.43   30.71    1.47    2.92    0.00   -2.49    2.20    5.59    0.00    0.02     0.2     1.0    2.62    4.11    5.03    5.50    5.20    3.77    2.37    0.00    0.00    0.05    0.28    0.23    0.03    0.04    0.05    0.03    0.03    0.02    0.19    1.09    2.90    4.33    5.06    5.54    5.24    3.80    2.40
 1974 364    60     0     0    66.0    64.9     1.2     0.0    0.47   30.76    1.51    2.95    0.00   -2.49    2.28    6.18    0.00    0.02     0.2     1.0    2.50    3.90    4.82    5.31    5.16    3.82    2.44    0.00    0.00    0.05    0.27    0.22    0.03    0.04    0.05    0.03    0.03    0.02    0.17    1.05    2.78    4.13    4.85    5.35    5.20    3.85    2.47
 1974 365    61     0     0    65.8    64.7     1.2     0.0    0.50   30.82    1.53    2.98    0.00   -2.49    2.29    6.36    0.00    0.02     0.2     1.0    2.47    3.83    4.72    5.22    5.16    3.84    2.46    0.00    0.00    0.05    0.26    0.22    0.03    0.04    0.05    0.03    0.04    0.02    0.15    1.04    2.74    4.04    4.75    5.25    5.20    3.87    2.50
 1975 001    62     0     0    65.7    64.6     1.1     0.0    0.52   30.87    1.54    3.01    0.00   -2.48    2.34    6.41    0.00    0.02     0.1     1.0    2.46    3.80    4.70    5.21    5.15    3.85    2.47    0.00    0.00    0.05    0.25    0.21    0.03    0.04    0.04    0.03    0.04    0.02    0.14    1.03    2.71    4.01    4.73    5.25    5.19    3.88    2.51
 1975 002    63     0     0    65.5    64.4     1.1     0.0    0.55   30.92    1.55    3.03    0.00   -2.48    2.40    6.55    0.00    0.01     0.1     1.0    2.41    3.74    4.64    5.16    5.15    3.87    2.50    0.00    0.00    0.05    0.25    0.20    0.03    0.03    0.04    0.03    0.04    0.01    0.12    1.00    2.65    3.94    4.67    5.19    5.19    3.90    2.53
 1975 003    64     0     0    65.4    64.3     1.1     0.0    0.57   30.96    1.56    3.04    0.00   -2.47    2.48    6.57    0.00    0.01     0.1     0.9    2.39    3.72    4.63    5.15    5.15    3.87    2.50    0.00    0.00    0.05    0.24    0.20    0.03    0.03    0.04    0.03    0.04    0.01    0.11    0.98    2.63    3.92    4.66    5.19    5.19    3.90    2.54
 1975 004    65     0     0    65.4    64.3     1.1     0.0    0.59   31.01    1.56    3.05    0.00   -2.46    2.54    6.57    0.00    0.01     0.1     0.9    2.38    3.71    4.62    5.15    5.15    3.87    2.50    0.00    0.00    0.05    0.23    0.19    0.03    0.03    0.04    0.03    0.04    0.01    0.11    0.97    2.61    3.90    4.65    5.19    5.19    3.90    2.54
 1975 005    66     0     0    65.3    64.3     1.0     0.0    0.60   31.05    1.57    3.06    0.00   -2.45    2.56    6.57    0.00    0.01     0.1     0.9    2.39    3.71    4.62    5.15    5.15    3.87    2.50    0.00    0.00    0.04    0.22    0.18    0.02    0.03    0.04    0.03    0.04    0.01    0.11    0.98    2.61    3.90    4.65    5.18    5.19    3.90    2.54
 1975 006    67     0     0    65.3    64.3     1.0     0.0    0.62   31.09    1.58    3.06    0.00   -2.44    2.61    6.57    0.00    0.01     0.1     0.9    2.38    3.71    4.62    5.15    5.16    3.87    2.50    0.00    0.00    0.04    0.21    0.18    0.02    0.03    0.04    0.03    0.04    0.01    0.11    0.97    2.59    3.88    4.64    5.18    5.20    3.90    2.54
 1975 007    68     0     0    65.2    64.2     1.0     0.0    0.64   31.14    1.58    3.07    0.00   -2.43    2.70    6.57    0.00    0.01     0.1     0.9    2.35    3.68    4.61    5.15    5.17    3.87    2.50    0.00    0.00    0.04    0.21    0.17    0.02    0.03    0.04    0.03    0.04    0.01    0.10    0.94    2.56    3.86    4.63    5.18    5.21    3.90    2.54
 1975 008    69     0     0    65.1    64.1     1.0     0.0    0.66   31.18    1.59    3.08    0.00   -2.42    2.76    6.67    0.00    0.01     0.1     0.9    2.30    3.63    4.57    5.13    5.16    3.89    2.52    0.00    0.00    0.04    0.20    0.17    0.02    0.03    0.04    0.03    0.04    0.01    0.09    0.91    2.50    3.80    4.59    5.16    5.20    3.92    2.55
 1975 009    70     0     0    65.0    64.0     0.9     0.0    0.68   31.22    1.60    3.09    0.00   -2.41    2.82    6.68    0.00    0.01     0.1     0.9    2.29    3.62    4.56    5.13    5.16    3.89    2.52    0.00    0.00    0.04    0.19    0.16    0.02    0.03    0.04    0.03    0.04    0.01    0.09    0.90    2.48    3.78    4.58    5.16    5.20    3.92    2.56
 1975 010    71     0     0    64.9    64.0     0.9     0.0    0.71   31.26    1.61    3.10    0.00   -2.40    2.89    6.68    0.00    0.01     0.1     0.8    2.27    3.60    4.55    5.13    5.15    3.90    2.54    0.00    0.00    0.04    0.19    0.16    0.02    0.03    0.04    0.03    0.04    0.01    0.08    0.89    2.46    3.76    4.57    5.15    5.19    3.93    2.58
 1975 011    72     0     0    64.8    63.9     0.9     0.0    0.74   31.30    1.61    3.12    0.00   -2.38    2.98    6.68    0.00    0.01     0.1     0.8    2.26    3.58    4.54    5.13    5.15    3.90    2.54    0.00    0.00    0.04    0.18    0.15    0.02    0.03    0.04    0.03    0.04    0.01    0.06    0.87    2.44    3.73    4.56    5.15    5.19    3.93    2.58
 1975 012    73     0     0    64.7    63.8     0.9     0.0    0.77   31.34    1.62    3.14    0.00   -2.37    3.08    6.68    0.00    0.01     0.0     0.8    2.23    3.55    4.53    5.13    5.16    3.90    2.54    0.00    0.00    0.04    0.17    0.15    0.02    0.03    0.04    0.03    0.04    0.01    0.05    0.84    2.40    3.71    4.55    5.15    5.20    3.93    2.58
 1975 013    74     0     0    64.4    63.6     0.9     0.0    0.80   31.38    1.63    3.16    0.00   -2.35    3.17    6.88    0.00    0.01     0.0     0.8    2.13    3.44    4.46    5.08    5.16    3.92    2.57    0.01    0.00    0.04    0.17    0.15    0.02    0.03    0.04    0.03    0.04    0.01    0.03    0.79    2.30    3.59    4.47    5.11    5.20    3.95    2.61
 1975 014    75     0     0    64.4    63.5     0.9     0.0    0.84   31.42    1.64    3.17    0.00   -2.33    3.22    6.88    0.00    0.01     0.0     0.7    2.12    3.44    4.44    5.08    5.15    3.94    2.57    0.01    0.00    0.04    0.16    0.14    0.02    0.03    0.04    0.03    0.04    0.01    0.02    0.78    2.29    3.58    4.46    5.11    5.19    3.98    2.61
 1975 015    76     0     0    64.3    63.4     0.9     0.0    0.87   31.46    1.65    3.17    0.00   -2.30    3.32    6.88    0.00    0.01     0.0     0.7    2.08    3.41    4.43    5.08    5.17    3.94    2.57    0.01    0.00    0.04    0.16    0.14    0.02    0.03    0.04    0.03    0.04    0.01    0.02    0.75    2.24    3.55    4.45    5.11    5.20    3.98    2.61
 1975 016    77     0     0    64.2    63.3     0.9     0.0    0.90   31.50    1.66    3.18    0.00   -2.27    3.43    6.95    0.00    0.01     0.0     0.7    2.03    3.38    4.42    5.09    5.16    3.95    2.58    0.01    0.00    0.04    0.16    0.14    0.02    0.03    0.04    0.03    0.04    0.01    0.02    0.71    2.19    3.52    4.44    5.11    5.19    3.98    2.62
 1975 017    78     0     0    64.1    63.2     0.9     0.0    0.93   31.53    1.67    3.19    0.00   -2.25    3.46    7.01    0.00    0.01     0.0     0.6    1.98    3.35    4.42    5.10    5.16    3.95    2.59    0.00    0.00    0.04    0.15    0.14    0.02    0.03    0.04    0.03    0.04    0.01    0.02    0.67    2.14    3.49    4.44    5.13    5.20    3.98    2.63
 1975 018    79     0     0    64.0    63.1     0.9     0.0    0.96   31.57    1.69    3.19    0.00   -2.24    3.50    7.07    0.00    0.00     0.0     0.6    1.88    3.30    4.42    5.13    5.17    3.97    2.60    0.00    0.00    0.04    0.15    0.13    0.02    0.02    0.04    0.03    0.04    0.00    0.01    0.61    2.03    3.44    4.44    5.15    5.21    4.00    2.64
 1975 019    80     0     0    63.9    63.0     0.8     0.0    0.97   31.59    1.72    3.20    0.00   -2.22    3.50    7.17    0.00    0.00     0.0     0.5    1.70    3.10    4.33    5.19    5.23    4.02    2.63    0.00    0.00    0.04    0.15    0.13    0.02    0.02    0.04    0.03    0.04    0.00    0.01    0.53    1.85    3.23    4.34    5.22    5.26    4.05    2.67
 1975 020    81     0     0    63.6    62.7     0.8     0.0    0.98   31.62    1.75    3.20    0.00   -2.21    3.54    7.41    0.00    0.00     0.0     0.4    1.38    2.68    3.92    4.88    5.39    4.20    2.73    0.00    0.00    0.04    0.14    0.13    0.02    0.02    0.04    0.03    0.04    0.00    0.01    0.42    1.53    2.81    3.94    4.90    5.42    4.23    2.76
 1975 021    82     0     0    63.1    62.3     0.8     0.0    0.99   31.64    1.79    3.20    0.00   -2.21    3.57    7.80    0.00    0.00     0.0     0.3    1.25    2.49    3.73    4.73    5.32    4.29    2.83    0.00    0.00    0.04    0.14    0.13    0.02    0.02    0.03    0.03    0.04    0.00    0.01    0.37    1.39    2.61    3.75    4.75    5.35    4.32    2.86
 1975 022    83     0     0    62.5    61.8     0.8     0.0    0.99   31.66    1.83    3.20    0.00   -2.20    3.65    8.24    0.00    0.00     0.0     0.3    1.15    2.35    3.59    4.62    5.23    4.32    2.91    0.00    0.00    0.04    0.14    0.12    0.02    0.02    0.03    0.03    0.04    0.00    0.01    0.34    1.29    2.48    3.61    4.64    5.27    4.35    2.94
 1975 023    84     0     0    62.0    61.2     0.8     0.0    1.00   31.68    1.87    3.20    0.00   -2.20    3.73    8.70    0.00    0.00     0.0     0.3    1.08    2.24    3.48    4.52    5.16    4.33    2.96    0.00    0.00    0.04    0.14    0.12    0.02    0.02    0.03    0.03    0.04    0.00    0.01    0.32    1.21    2.36    3.49    4.54    5.20    4.36    3.00
 1975 024    85     0     0    61.5    60.7     0.8     0.0    1.01   31.70    1.91    3.20    0.00   -2.19    3.77    9.14    0.00    0.00     0.0     0.3    1.01    2.13    3.36    4.42    5.12    4.34    3.01    0.00    0.00    0.03    0.13    0.12    0.02    0.02    0.03    0.03    0.04    0.00    0.01    0.30    1.14    2.25    3.37    4.44    5.15    4.36    3.04
 1975 025    86     0     0    60.9    60.2     0.8     0.0    1.02   31.72    1.94    3.20    0.00   -2.18    3.86    9.55    0.00    0.00     0.0     0.2    0.95    2.03    3.26    4.33    5.07    4.33    3.04    0.00    0.00    0.03    0.13    0.12    0.02    0.02    0.03    0.03    0.04    0.00    0.01    0.28    1.08    2.15    3.27    4.35    5.10    4.36    3.07
 1975 026    87     0     0    60.4    59.6     0.7     0.0    1.04   31.74    1.97    3.20    0.00   -2.16    3.95   10.00    0.00    0.00     0.0     0.2    0.82    1.81    2.99    4.09    5.09    4.40    3.10    0.00    0.00    0.03    0.13    0.12    0.02    0.02    0.03    0.03    0.04    0.00    0.01    0.24    0.95    1.93    3.01    4.11    5.12    4.43    3.13
 1975 027    88     0     0    59.8    59.1     0.7     0.0    1.06   31.76    2.02    3.20    0.00   -2.14    4.00   10.48    0.00    0.00     0.0     0.2    0.75    1.68    2.84    3.94    5.02    4.44    3.16    0.00    0.00    0.03    0.13    0.12    0.02    0.02    0.03    0.03    0.04    0.00    0.01    0.22    0.88    1.80    2.85    3.96    5.05    4.47    3.20
 1975 028    89     0     0    59.2    58.4     0.7     0.0    1.08   31.78    2.07    3.21    0.00   -2.13    4.03   11.05    0.00    0.00     0.0     0.2    0.64    1.48    2.58    3.68    4.99    4.50    3.24    0.00    0.00    0.03    0.13    0.11    0.02    0.02    0.03    0.03    0.04    0.00    0.01    0.19    0.77    1.60    2.60    3.70    5.02    4.53    3.28
 1975 029    90     0     0    58.5    57.8     0.7     0.0    1.09   31.80    2.14    3.21    0.00   -2.12    4.06   11.65    0.00    0.00     0.0     0.1    0.59    1.39    2.46    3.56    4.87    4.51    3.31    0.00    0.00    0.03    0.12    0.11    0.02    0.02    0.03    0.03    0.04    0.00    0.00    0.17    0.72    1.51    2.48    3.58    4.90    4.53    3.34
 1975 030    91     0     0    57.8    57.1     0.7     0.0    1.10   31.81    2.20    3.21    0.00   -2.10    4.14   12.22    0.00    0.00     0.0     0.1    0.55    1.32    2.36    3.46    4.78    4.48    3.35    0.00    0.00    0.03    0.12    0.11    0.02    0.02    0.03    0.03    0.04    0.00    0.00    0.16    0.67    1.43    2.38    3.48    4.81    4.51    3.38
 1975 031    92     0     0    57.1    56.4     0.7     0.0    1.11   31.83    2.25    3.21    0.00   -2.09    4.22   12.74    0.00    0.00     0.0     0.1    0.52    1.25    2.28    3.36    4.71    4.46    3.37    0.00    0.00    0.03    0.12    0.11    0.02    0.02    0.03    0.03    0.04    0.00    0.01    0.16    0.64    1.36    2.29    3.38    4.74    4.49    3.40
 1975 032    93     0     0    56.6    55.9     0.7     0.0    1.14   31.85    2.30    3.21    0.00   -2.07    4.30   13.20    0.00    0.00     0.0     0.1    0.49    1.20    2.20    3.28    4.65    4.44    3.38    0.00    0.00    0.03    0.12    0.11    0.02    0.02    0.03    0.03    0.04    0.00    0.01    0.15    0.61    1.30    2.21    3.30    4.68    4.46    3.42
 1975 033    94     0     0    56.1    55.4     0.7     0.0    1.17   31.87    2.34    3.21    0.00   -2.04    4.36   13.59    0.00    0.00     0.0     0.1    0.48    1.14    2.12    3.19    4.61    4.42    3.39    0.00    0.00    0.03    0.12    0.11    0.02    0.02    0.03    0.03    0.04    0.01    0.01    0.15    0.60    1.25    2.14    3.21    4.64    4.45    3.43
 1975 034    95     0     0    54.9    54.2     0.7     0.0    1.20   31.90    2.38    3.21    0.00   -2.01    4.40   14.76    0.00    0.00     0.0     0.1    0.46    1.07    1.97    2.97    4.47    4.37    3.41    0.01    0.00    0.03    0.12    0.11    0.02    0.02    0.03    0.03    0.04    0.01    0.01    0.15    0.58    1.18    1.99    2.99    4.50    4.39    3.45
 1975 035    96     0     0    54.3    53.5     0.7     0.0    1.23   31.93    2.39    3.21    0.00   -1.98    4.46   15.34    0.00    0.00     0.0     0.1    0.45    1.03    1.89    2.86    4.40    4.34    3.42    0.01    0.00    0.03    0.11    0.11    0.02    0.02    0.03    0.03    0.04    0.01    0.01    0.15    0.57    1.14    1.91    2.88    4.43    4.37    3.45
 1975 036    97     0     0    54.1    53.4     0.7     0.0    1.25   31.96    2.40    3.21    0.00   -1.96    4.48   15.49    0.00    0.00     0.0     0.1    0.45    1.01    1.86    2.81    4.38    4.34    3.43    0.00    0.00    0.03    0.11    0.10    0.02    0.02    0.03    0.03    0.04    0.00    0.01    0.15    0.57    1.12    1.88    2.83    4.41    4.37    3.47
 1975 037    98     0     0    54.1    53.4     0.7     0.0    1.26   31.98    2.41    3.21    0.00   -1.95    4.52   15.49    0.00    0.00     0.0     0.1    0.46    1.01    1.85    2.80    4.38    4.34    3.43    0.00    0.00    0.03    0.11    0.10    0.02    0.02    0.03    0.03    0.04    0.00    0.01    0.16    0.57    1.11    1.87    2.82    4.41    4.37    3.47
 1975 038    99     0     0    54.1    53.4     0.7     0.0    1.26   32.01    2.41    3.21    0.00   -1.95    4.53   15.49    0.00    0.00     0.0     0.1    0.46    1.01    1.85    2.80    4.38    4.34    3.43    0.00    0.00    0.03    0.10    0.10    0.02    0.02    0.03    0.03    0.03    0.01    0.01    0.16    0.57    1.11    1.87    2.82    4.41    4.37    3.46
 1975 039   100     0     0    54.0    53.3     0.7     0.0    1.27   32.03    2.42    3.21    0.00   -1.95    4.60   15.49    0.00    0.00     0.0     0.1    0.47    1.01    1.84    2.79    4.38    4.34    3.43    0.00    0.00    0.03    0.10    0.09    0.01    0.02    0.03    0.03    0.03    0.01    0.01    0.16    0.57    1.10    1.86    2.81    4.40    4.36    3.46
 1975 040   101     0     0    54.0    53.3     0.6     0.0    1.27   32.05    2.42    3.21    0.00   -1.94    4.63   15.49    0.00    0.00     0.0     0.1    0.48    1.00    1.84    2.78    4.38    4.33    3.43    0.00    0.00    0.03    0.10    0.09    0.01    0.02    0.03    0.03    0.03    0.01    0.01    0.16    0.58    1.10    1.85    2.80    4.40    4.36    3.46
 1975 041   102     0     0    53.9    53.3     0.6     0.0    1.27   32.08    2.42    3.21    0.00   -1.94    4.66   15.49    0.00    0.00     0.0     0.1    0.49    1.01    1.84    2.78    4.37    4.33    3.43    0.00    0.00    0.02    0.09    0.09    0.01    0.02    0.02    0.03    0.03    0.01    0.01    0.17    0.58    1.10    1.85    2.80    4.40    4.36    3.46
 1975 042   103     0     0    53.9    53.3     0.6     0.0    1.27   32.11    2.43    3.21    0.00   -1.94    4.68   15.49    0.00    0.00     0.0     0.1    0.50    1.00    1.83    2.77    4.38    4.33    3.43    0.00    0.00    0.02    0.08    0.09    0.01    0.02    0.02    0.02    0.03    0.01    0.01    0.16    0.58    1.09    1.84    2.79    4.40    4.36    3.46
 1975 043   104     0     0    53.8    53.3     0.6     0.0    1.28   32.13    2.43    3.21    0.00   -1.93    4.75   15.49    0.00    0.00     0.0     0.1    0.49    0.99    1.81    2.76    4.38    4.33    3.43    0.00    0.00    0.02    0.08    0.08    0.01    0.02    0.02    0.02    0.03    0.01    0.01    0.16    0.57    1.07    1.83    2.78    4.40    4.35    3.46
 1975 044   105     0     0    53.7    53.1     0.5     0.0    1.28   32.15    2.43    3.21    0.00   -1.93    4.83   15.55    0.00    0.00     0.0     0.1    0.49    0.97    1.79    2.74    4.37    4.33    3.43    0.00    0.00    0.02    0.08    0.08    0.01    0.02    0.02    0.02    0.03    0.00    0.01    0.15    0.56    1.05    1.80    2.75    4.39    4.36    3.46
 1975 045   106     0     0    53.5    53.0     0.5     0.0    1.29   32.17    2.43    3.21    0.00   -1.92    4.92   15.62    0.00    0.00     0.0     0.1    0.45    0.93    1.76    2.73    4.36    4.34    3.44    0.00    0.00    0.02    0.07    0.08    0.01    0.02    0.02    0.02    0.03    0.00    0.01    0.14    0.52    1.00    1.78    2.74    4.38    4.36    3.47
 1975 046   107     0     0    53.4    52.9     0.5     0.0    1.30   32.19    2.44    3.21    0.00   -1.91    4.94   15.72    0.00    0.00     0.0     0.1    0.42    0.89    1.70    2.70    4.35    4.36    3.46    0.00    0.00    0.02    0.07    0.08    0.01    0.02    0.02    0.02    0.03    0.00    0.01    0.13    0.50    0.96    1.71    2.72    4.37    4.38    3.49
 1975 047   108     0     0    53.3    52.7     0.5     0.0    1.31   32.20    2.44    3.21    0.00   -1.90    4.97   15.86    0.00    0.00     0.0     0.1    0.41    0.85    1.64    2.64    4.33    4.37    3.48    0.00    0.00    0.02    0.07    0.08    0.01    0.02    0.02    0.02    0.03    0.00    0.01    0.12    0.48    0.93    1.66    2.66    4.35    4.39    3.51
 1975 048   109     0     0    53.0    52.5     0.5     0.0    1.32   32.22    2.46    3.21    0.00   -1.89    5.05   16.04    0.00    0.00     0.0     0.1    0.39    0.82    1.58    2.56    4.29    4.38    3.50    0.00    0.00    0.02    0.07    0.07    0.01    0.02    0.02    0.02    0.03    0.00    0.01    0.12    0.46    0.89    1.59    2.58    4.31    4.40    3.53
 1975 049   110     0     0    52.7    52.2     0.5     0.0    1.32   32.23    2.47    3.21    0.00   -1.89    5.13   16.25    0.00    0.00     0.0     0.1    0.37    0.77    1.51    2.47    4.25    4.39    3.53    0.00    0.00    0.02    0.07    0.07    0.01    0.02    0.02    0.02    0.03    0.00    0.01    0.11    0.44    0.85    1.52    2.49    4.27    4.41    3.56
 1975 050   111     0     0    52.3    51.9     0.5     0.0    1.33   32.25    2.49    3.21    0.00   -1.88    5.21   16.50    0.00    0.00     0.0     0.1    0.36    0.74    1.45    2.39    4.20    4.39    3.56    0.00    0.00    0.01    0.07    0.07    0.01    0.02    0.02    0.02    0.03    0.00    0.01    0.10    0.43    0.81    1.46    2.41    4.22    4.41    3.58
 1975 051   112     0     0    51.0    50.5     0.5     0.0    1.33   32.26    2.50    3.21    0.00   -1.88    5.30   17.80    0.00    0.00     0.0     0.1    0.34    0.67    1.31    2.17    4.02    4.32    3.59    0.00    0.00    0.01    0.07    0.07    0.01    0.02    0.02    0.02    0.03    0.00    0.01    0.10    0.40    0.74    1.32    2.19    4.04    4.34    3.61
 1975 052   113     0     0    50.3    49.8     0.5     0.0    1.34   32.28    2.51    3.21    0.00   -1.87    5.38   18.38    0.00    0.00     0.0     0.1    0.33    0.64    1.25    2.07    3.94    4.28    3.60    0.00    0.00    0.01    0.06    0.07    0.01    0.01    0.02    0.02    0.03    0.00    0.01    0.10    0.39    0.71    1.26    2.09    3.96    4.31    3.62
 1975 053   114     0     0    50.2    49.7     0.5     0.0    1.34   32.29    2.51    3.21    0.00   -1.87    5.47   18.38    0.00    0.00     0.0     0.1    0.33    0.63    1.23    2.05    3.92    4.28    3.61    0.00    0.00    0.01    0.06    0.07    0.01    0.01    0.02    0.02    0.03    0.00    0.01    0.10    0.40    0.70    1.24    2.07    3.94    4.30    3.64
 1975 054   115     0     0    50.1    49.7     0.4     0.0    1.35   32.31    2.52    3.21    0.00   -1.86    5.56   18.38    0.00    0.00     0.0     0.1    0.34    0.62    1.21    2.03    3.92    4.28    3.61    0.00    0.00    0.01    0.06    0.06    0.01    0.01    0.02    0.02    0.03    0.01    0.01    0.11    0.40    0.69    1.22    2.04    3.94    4.30    3.64
 1975 055   116     0     0    50.0    49.6     0.4     0.0    1.35   32.32    2.52    3.21    0.00   -1.86    5.65   18.38    0.00    0.01     0.0     0.1    0.34    0.61    1.20    2.01    3.92    4.27    3.61    0.00    0.00    0.01    0.06    0.06    0.01    0.01    0.02    0.02    0.03    0.01    0.02    0.11    0.40    0.68    1.21    2.02    3.93    4.29    3.63
 1975 056   117     0     0    49.9    49.5     0.4     0.0    1.36   32.35    2.52    3.21    0.00   -1.85    5.75   18.38    0.00    0.01     0.0     0.1    0.35    0.61    1.19    1.99    3.91    4.27    3.61    0.00    0.00    0.01    0.06    0.06    0.01    0.01    0.02    0.02    0.03    0.01    0.02    0.11    0.40    0.67    1.20    2.01    3.92    4.29    3.63
 1975 057   118     0     0    49.9    49.5     0.4     0.0    1.36   32.37    2.53    3.21    0.00   -1.85    5.78   18.38    0.00    0.01     0.0     0.1    0.35    0.61    1.18    1.99    3.90    4.27    3.61    0.00    0.00    0.01    0.05    0.05    0.01    0.01    0.02    0.02    0.03    0.01    0.02    0.11    0.40    0.66    1.19    2.00    3.92    4.29    3.63
 1975 058   119     0     0    49.8    49.4     0.4     0.0    1.36   32.39    2.53    3.21    0.00   -1.85    5.89   18.38    0.00    0.01     0.0     0.1    0.36    0.61    1.17    1.97    3.89    4.27    3.60    0.00    0.00    0.01    0.05    0.05    0.01    0.01    0.02    0.02    0.03    0.01    0.02    0.12    0.41    0.65    1.18    1.99    3.91    4.28    3.63
 1975 059   120     0     0    49.7    49.3     0.4     0.0    1.37   32.42    2.53    3.21    0.00   -1.84    6.01   18.38    0.00    0.01     0.0     0.1    0.36    0.60    1.16    1.96    3.88    4.26    3.60    0.00    0.00    0.01    0.04    0.04    0.01    0.01    0.02    0.02    0.03    0.01    0.02    0.12    0.41    0.64    1.17    1.97    3.89    4.28    3.63
 1975 060   121     0     0    49.5    49.2     0.3     0.0    1.37   32.44    2.53    3.21    0.00   -1.84    6.14   18.38    0.00    0.01     0.0     0.1    0.37    0.59    1.14    1.95    3.87    4.26    3.60    0.00    0.00    0.01    0.04    0.04    0.01    0.01    0.02    0.02    0.02    0.01    0.03    0.13    0.41    0.63    1.15    1.96    3.88    4.27    3.62
 1975 061   122     0     0    49.4    49.1     0.3     0.0    1.38   32.47    2.53    3.21    0.00   -1.84    6.27   18.38    0.00    0.01     0.0     0.1    0.38    0.58    1.13    1.92    3.85    4.26    3.60    0.00    0.00    0.01    0.04    0.03    0.01    0.01    0.01    0.01    0.02    0.01    0.03    0.13    0.41    0.61    1.13    1.93    3.87    4.27    3.62
 1975 062   123     0     0    49.3    49.0     0.3     0.0    1.39   32.49    2.53    3.21    0.00   -1.82    6.41   18.38    0.00    0.01     0.0     0.1    0.38    0.57    1.11    1.90    3.84    4.26    3.60    0.00    0.00    0.01    0.03    0.03    0.01    0.01    0.01    0.01    0.02    0.01    0.03    0.13    0.41    0.60    1.11    1.90    3.86    4.27    3.62
 1975 063   124     0     0    49.2    48.9     0.3     0.0    1.41   32.52    2.53    3.22    0.00   -1.81    6.55   18.38    0.00    0.00     0.0     0.1    0.39    0.56    1.09    1.87    3.83    4.26    3.60    0.00    0.00    0.01    0.03    0.03    0.01    0.01    0.01    0.01    0.02    0.00    0.02    0.13    0.42    0.59    1.09    1.88    3.84    4.27    3.62
 1975 064   125     0     0    49.0    48.7     0.3     0.0    1.44   32.55    2.53    3.23    0.00   -1.79    6.69   18.38    0.00    0.01     0.0     0.1    0.39    0.55    1.07    1.85    3.82    4.25    3.59    0.00    0.00    0.01    0.03    0.03    0.01    0.01    0.01    0.01    0.03    0.01    0.02    0.14    0.42    0.58    1.08    1.86    3.83    4.27    3.62
 1975 065   126     0     0    48.9    48.6     0.3     0.0    1.47   32.57    2.53    3.23    0.00   -1.76    6.84   18.38    0.00    0.00     0.0     0.1    0.38    0.54    1.05    1.83    3.80    4.25    3.59    0.00    0.00    0.01    0.03    0.03    0.01    0.01    0.01    0.01    0.03    0.01    0.01    0.13    0.41    0.57    1.06    1.83    3.82    4.27    3.62
 1975 066   127     0     0    48.8    48.5     0.3     0.0    1.51   32.59    2.53    3.23    0.00   -1.73    6.99   18.38    0.00    0.00     0.0     0.1    0.36    0.53    1.03    1.80    3.80    4.25    3.59    0.00    0.00    0.02    0.04    0.03    0.01    0.01    0.01    0.01    0.03    0.01    0.01    0.13    0.40    0.56    1.04    1.81    3.81    4.27    3.62
 1975 067   128     0     0    48.6    48.2     0.3     0.0    1.54   32.62    2.53    3.23    0.00   -1.69    7.14   18.50    0.00    0.00     0.0     0.1    0.30    0.46    0.90    1.64    3.76    4.33    3.64    0.01    0.00    0.02    0.04    0.03    0.01    0.01    0.01    0.01    0.02    0.01    0.01    0.11    0.34    0.50    0.91    1.65    3.77    4.34    3.67
 1975 068   129     0     0    48.2    47.9     0.3     0.0    1.57   32.63    2.53    3.23    0.00   -1.67    7.27   18.74    0.00    0.00     0.0     0.1    0.28    0.45    0.84    1.55    3.66    4.34    3.69    0.00    0.00    0.02    0.04    0.04    0.01    0.01    0.01    0.01    0.02    0.01    0.01    0.10    0.32    0.49    0.85    1.56    3.68    4.35    3.72
 1975 069   130     0     0    47.8    47.4     0.4     0.0    1.59   32.64    2.53    3.24    0.00   -1.65    7.40   19.05    0.00    0.00     0.0     0.1    0.27    0.44    0.80    1.48    3.58    4.32    3.73    0.00    0.00    0.02    0.04    0.04    0.01    0.01    0.02    0.01    0.03    0.01    0.01    0.10    0.31    0.48    0.81    1.49    3.60    4.34    3.75
 1975 070   131     0     0    47.4    47.0     0.4     0.0    1.60   32.65    2.54    3.24    0.00   -1.64    7.49   19.40    0.00    0.00     0.0     0.1    0.26    0.43    0.76    1.40    3.51    4.30    3.75    0.00    0.00    0.02    0.04    0.04    0.01    0.01    0.02    0.01    0.03    0.00    0.01    0.10    0.29    0.46    0.77    1.41    3.52    4.32    3.78
 1975 071   132     0     0    46.9    46.5     0.3     0.0    1.61   32.66    2.55    3.24    0.00   -1.64    7.61   19.77    0.00    0.00     0.0     0.1    0.24    0.41    0.71    1.32    3.43    4.28    3.77    0.00    0.00    0.02    0.04    0.04    0.01    0.01    0.02    0.01    0.03    0.00    0.01    0.09    0.28    0.45    0.72    1.33    3.44    4.30    3.80
 1975 072   133     0     0    46.3    45.9     0.3     0.0    1.61   32.67    2.57    3.24    0.00   -1.63    7.73   20.20    0.00    0.00     0.0     0.1    0.22    0.39    0.66    1.21    3.34    4.27    3.80    0.00    0.00    0.02    0.04    0.04    0.01    0.01    0.01    0.01    0.02    0.00    0.00    0.08    0.26    0.42    0.66    1.22    3.35    4.28    3.83
 1975 073   134     0     0    45.7    45.4     0.3     0.0    1.61   32.68    2.60    3.24    0.00   -1.63    7.83   20.67    0.00    0.00     0.0     0.1    0.21    0.37    0.62    1.14    3.24    4.23    3.82    0.00    0.00    0.02    0.04    0.03    0.01    0.01    0.01    0.01    0.02    0.00    0.00    0.08    0.24    0.41    0.63    1.15    3.26    4.25    3.85
 1975 074   135     0     0    45.1    44.8     0.3     0.0    1.62   32.68    2.62    3.24    0.00   -1.62    7.93   21.13    0.00    0.00     0.0     0.1    0.20    0.36    0.59    1.09    3.16    4.19    3.83    0.00    0.00    0.02    0.04    0.03    0.01    0.01    0.01    0.01    0.02    0.00    0.00    0.07    0.23    0.40    0.60    1.10    3.18    4.20    3.86
 1975 075   136     0     0    44.6    44.3     0.3     0.0    1.62   32.69    2.63    3.24    0.00   -1.62    8.00   21.56    0.00    0.00     0.0     0.1    0.19    0.35    0.57    1.04    3.10    4.14    3.83    0.00    0.00    0.02    0.04    0.03    0.01    0.01    0.01    0.01    0.02    0.00    0.00    0.07    0.23    0.39    0.58    1.05    3.11    4.16    3.85
 1975 076   137     0     0    43.1    42.8     0.3     0.0    1.62   32.70    2.65    3.24    0.00   -1.62    8.11   22.89    0.00    0.00     0.0     0.1    0.18    0.34    0.52    0.95    2.93    4.01    3.79    0.00    0.00    0.02    0.03    0.03    0.01    0.01    0.01    0.01    0.02    0.00    0.01    0.07    0.22    0.37    0.53    0.96    2.95    4.03    3.81
 1975 077   138     0     0    42.9    42.6     0.3     0.0    1.62   32.71    2.65    3.24    0.00   -1.62    8.19   23.07    0.00    0.00     0.0     0.1    0.18    0.34    0.51    0.94    2.90    3.99    3.78    0.00    0.00    0.02    0.03    0.03    0.01    0.01    0.01    0.01    0.02    0.00    0.01    0.07    0.22    0.37    0.52    0.95    2.91    4.01    3.81
 1975 078   139     0     0    42.6    42.3     0.3     0.0    1.62   32.72    2.65    3.24    0.00   -1.62    8.28   23.22    0.00    0.00     0.0     0.1    0.19    0.33    0.51    0.92    2.87    3.98    3.78    0.00    0.00    0.02    0.03    0.03    0.01    0.01    0.01    0.01    0.02    0.00    0.01    0.07    0.22    0.37    0.52    0.93    2.88    3.99    3.80
 1975 079   140     0     0    42.5    42.2     0.3     0.0    1.62   32.73    2.65    3.24    0.00   -1.62    8.32   23.35    0.00    0.00     0.0     0.1    0.19    0.33    0.51    0.91    2.85    3.96    3.77    0.00    0.00    0.02    0.03    0.03    0.01    0.01    0.01    0.01    0.02    0.00    0.01    0.08    0.22    0.36    0.51    0.92    2.86    3.97    3.79
 1975 080   141     0     0    42.3    42.0     0.3     0.0    1.62   32.74    2.65    3.24    0.00   -1.62    8.38   23.46    0.00    0.00     0.0     0.1    0.18    0.33    0.50    0.88    2.82    3.95    3.77    0.00    0.00    0.01    0.03    0.03    0.01    0.01    0.01    0.01    0.02    0.00    0.01    0.07    0.22    0.36    0.51    0.89    2.84    3.96    3.79
 1975 081   142     0     0    42.1    41.8     0.3     0.0    1.62   32.75    2.65    3.24    0.00   -1.62    8.47   23.56    0.00    0.00     0.0     0.1    0.18    0.33    0.50    0.86    2.80    3.94    3.77    0.00    0.00    0.01    0.03    0.03    0.01    0.01    0.01    0.01    0.02    0.00    0.01    0.07    0.21    0.36    0.51    0.87    2.81    3.96    3.79
 1975 082   143     0     0    41.9    41.7     0.3     0.0    1.62   32.76    2.65    3.24    0.00   -1.62    8.56   23.66    0.00    0.00     0.0     0.1    0.18    0.33    0.50    0.84    2.77    3.94    3.77    0.00    0.00    0.01    0.03    0.03    0.01    0.01    0.01    0.01    0.02    0.00    0.01    0.07    0.21    0.36    0.51    0.85    2.78    3.95    3.79
 1975 083   144     0     0    41.3    41.1     0.3     0.0    1.62   32.77    2.65    3.24    0.00   -1.62    8.66   24.18    0.00    0.00     0.0     0.1    0.17    0.32    0.48    0.79    2.68    3.89    3.77    0.00    0.00    0.01    0.03    0.03    0.01    0.01    0.01    0.01    0.02    0.00    0.01    0.07    0.20    0.34    0.49    0.80    2.69    3.90    3.79
 1975 084   145     0     0    41.0    40.8     0.3     0.0    1.63   32.77    2.65    3.24    0.00   -1.61    8.75   24.37    0.00    0.00     0.0     0.1    0.17    0.31    0.48    0.77    2.64    3.87    3.77    0.00    0.00    0.01    0.03    0.03    0.01    0.01    0.01    0.01    0.02    0.00    0.01    0.07    0.20    0.34    0.48    0.78    2.65    3.88    3.79
 1975 085   146     0     0    40.9    40.7     0.3     0.0    1.64   32.78    2.66    3.24    0.00   -1.60    8.85   24.37    0.00    0.00     0.0     0.1    0.17    0.31    0.48    0.76    2.62    3.86    3.77    0.00    0.00    0.01    0.03    0.03    0.01    0.01    0.01    0.01    0.02    0.00    0.01    0.07    0.20    0.34    0.49    0.77    2.63    3.88    3.79
 1975 086   147     0     0    40.8    40.6     0.3     0.0    1.65   32.79    2.66    3.24    0.00   -1.59    8.95   24.37    0.00    0.00     0.0     0.1    0.17    0.32    0.48    0.74    2.60    3.86    3.77    0.00    0.00    0.01    0.03    0.03    0.01    0.01    0.01    0.01    0.02    0.00    0.01    0.07    0.20    0.34    0.49    0.75    2.61    3.87    3.79
 1975 087   148     0     0    40.7    40.5     0.3     0.0    1.66   32.80    2.66    3.24    0.00   -1.58    9.03   24.43    0.00    0.00     0.0     0.1    0.17    0.31    0.48    0.73    2.57    3.86    3.77    0.00    0.00    0.01    0.03    0.03    0.01    0.01    0.01    0.01    0.02    0.00    0.01    0.06    0.19    0.34    0.49    0.74    2.59    3.87    3.79
 1975 088   149     0     0    40.6    40.4     0.2     0.0    1.66   32.81    2.66    3.24    0.00   -1.58    9.13   24.43    0.00    0.00     0.0     0.1    0.17    0.31    0.48    0.73    2.54    3.85    3.78    0.00    0.00    0.01    0.03    0.02    0.01    0.01    0.01    0.01    0.02    0.00    0.01    0.06    0.19    0.34    0.49    0.74    2.56    3.86    3.80
 1975 089   150     0     0    40.4    40.2     0.2     0.0    1.66   32.82    2.66    3.24    0.00   -1.58    9.24   24.52    0.00    0.00     0.0     0.1    0.16    0.31    0.48    0.72    2.51    3.85    3.78    0.00    0.00    0.01    0.03    0.02    0.01    0.01    0.01    0.01    0.02    0.00    0.01    0.06    0.19    0.33    0.48    0.72    2.52    3.86    3.80
 1975 090   151     0     0    40.2    40.0     0.2     0.0    1.66   32.83    2.66    3.24    0.00   -1.58    9.35   24.61    0.00    0.00     0.0     0.1    0.16    0.30    0.47    0.70    2.48    3.84    3.78    0.00    0.00    0.01    0.02    0.02    0.01    0.01    0.01    0.01    0.02    0.00    0.01    0.06    0.19    0.33    0.48    0.71    2.49    3.85    3.80
 1975 091   152     0     0    40.0    39.8     0.2     0.0    1.66   32.83    2.66    3.24    0.00   -1.58    9.46   24.69    0.00    0.00     0.0     0.1    0.16    0.30    0.47    0.68    2.44    3.83    3.78    0.00    0.00    0.01    0.02    0.02    0.01    0.01    0.01    0.01    0.02    0.00    0.01    0.06    0.18    0.33    0.48    0.69    2.45    3.84    3.80
 1975 092   153     0     0    39.8    39.6     0.2     0.0    1.66   32.84    2.66    3.24    0.00   -1.58    9.58   24.78    0.00    0.00     0.0     0.1    0.16    0.30    0.47    0.67    2.41    3.82    3.78    0.00    0.00    0.01    0.02    0.02    0.01    0.01    0.01    0.01    0.02    0.00    0.01    0.06    0.18    0.32    0.47    0.67    2.42    3.83    3.80
 1975 093   154     0     0    39.6    39.4     0.2     0.0    1.66   32.85    2.66    3.24    0.00   -1.58    9.70   24.87    0.00    0.00     0.0     0.1    0.16    0.30    0.46    0.65    2.37    3.81    3.78    0.00    0.00    0.01    0.02    0.02    0.01    0.01    0.01    0.01    0.02    0.00    0.01    0.06    0.18    0.32    0.47    0.66    2.38    3.82    3.80
 1975 094   155     0     0    39.4    39.2     0.2     0.0    1.66   32.85    2.66    3.24    0.00   -1.58    9.80   24.96    0.00    0.00     0.0     0.1    0.16    0.29    0.46    0.64    2.34    3.80    3.79    0.00    0.00    0.01    0.02    0.02    0.01    0.01    0.01    0.01    0.02    0.00    0.01    0.06    0.18    0.32    0.47    0.64    2.35    3.81    3.80
 1975 095   156     0     0    39.2    39.0     0.2     0.0    1.67   32.86    2.66    3.24    0.00   -1.58    9.92   25.06    0.00    0.00     0.0     0.1    0.15    0.29    0.46    0.62    2.30    3.78    3.79    0.00    0.00    0.01    0.02    0.02    0.01    0.01    0.01    0.01    0.02    0.00    0.01    0.06    0.18    0.31    0.46    0.63    2.31    3.79    3.80
 1975 096   157     0     0    39.0    38.8     0.2     0.0    1.67   32.87    2.66    3.24    0.00   -1.58   10.02   25.17    0.00    0.00     0.0     0.1    0.15    0.29    0.45    0.61    2.26    3.77    3.79    0.00    0.00    0.01    0.02    0.02    0.01    0.01    0.01    0.01    0.02    0.00    0.01    0.06    0.17    0.31    0.46    0.61    2.27    3.78    3.80
 1975 097   158     0     0    38.7    38.6     0.2     0.0    1.67   32.87    2.67    3.24    0.00   -1.58   10.14   25.29    0.00    0.00     0.0     0.1    0.15    0.28    0.45    0.59    2.22    3.76    3.79    0.00    0.00    0.01    0.02    0.02    0.00    0.01    0.01    0.01    0.01    0.00    0.01    0.06    0.17    0.30    0.45    0.60    2.23    3.76    3.81
 1975 098   159     0     0    38.5    38.3     0.2     0.0    1.67   32.88    2.67    3.24    0.00   -1.58   10.27   25.41    0.00    0.00     0.0     0.1    0.15    0.28    0.44    0.58    2.18    3.74    3.79    0.00    0.00    0.01    0.02    0.02    0.00    0.01    0.01    0.01    0.01    0.00    0.01    0.06    0.17    0.30    0.45    0.58    2.19    3.75    3.81
 1975 099   160     0     0    38.2    38.1     0.2     0.0    1.67   32.88    2.67    3.24    0.00   -1.58   10.40   25.54    0.00    0.00     0.0     0.1    0.14    0.28    0.44    0.57    2.14    3.72    3.79    0.00    0.00    0.01    0.02    0.02    0.00    0.01    0.01    0.01    0.01    0.00    0.01    0.06    0.16    0.30    0.44    0.57    2.15    3.73    3.81
 1975 100   161     0     0    38.0    37.9     0.2     0.0    1.67   32.89    2.67    3.24    0.00   -1.58   10.48   25.66    0.00    0.01     0.0     0.1    0.14    0.27    0.43    0.56    2.11    3.71    3.79    0.00    0.00    0.01    0.02    0.02    0.00    0.01    0.01    0.01    0.01    0.01    0.01    0.06    0.16    0.29    0.44    0.57    2.11    3.71    3.80
 1975 101   162     0     0    37.8    37.6     0.2     0.0    1.67   32.89    2.67    3.24    0.00   -1.58   10.62   25.78    0.00    0.01     0.0     0.1    0.14    0.27    0.43    0.55    2.06    3.69    3.79    0.00    0.00    0.01    0.02    0.02    0.00    0.01    0.01    0.01    0.01    0.01    0.01    0.06    0.16    0.29    0.43    0.55    2.07    3.70    3.80
 1975 102   163     0     0    37.1    36.9     0.2     0.0    1.67   32.90    2.68    3.24    0.00   -1.57   10.76   26.30    0.00    0.01     0.0     0.1    0.14    0.27    0.41    0.52    1.99    3.62    3.78    0.00    0.00    0.01    0.02    0.02    0.00    0.01    0.01    0.01    0.01    0.01    0.01    0.06    0.16    0.28    0.42    0.52    1.99    3.62    3.79
 1975 103   164     0     0    37.0    36.8     0.2     0.0    1.68   32.90    2.68    3.24    0.00   -1.57   10.89   26.30    0.00    0.01     0.0     0.1    0.14    0.27    0.41    0.51    1.96    3.61    3.78    0.00    0.00    0.01    0.02    0.02    0.00    0.01    0.01    0.01    0.01    0.01    0.02    0.06    0.16    0.28    0.42    0.51    1.97    3.62    3.79
 1975 104   165     0     0    36.9    36.7     0.2     0.0    1.70   32.91    2.68    3.25    0.00   -1.55   11.00   26.30    0.00    0.01     0.0     0.1    0.15    0.27    0.41    0.52    1.94    3.61    3.77    0.00    0.00    0.01    0.02    0.02    0.00    0.01    0.01    0.01    0.01    0.01    0.01    0.06    0.16    0.29    0.42    0.53    1.94    3.62    3.79
 1975 105   166     0     0    36.8    36.6     0.2     0.0    1.75   32.92    2.68    3.25    0.00   -1.50   11.15   26.30    0.00    0.01     0.0     0.1    0.15    0.27    0.41    0.50    1.90    3.62    3.77    0.01    0.00    0.01    0.02    0.02    0.01    0.01    0.01    0.01    0.01    0.01    0.02    0.07    0.17    0.29    0.42    0.51    1.91    3.63    3.79
 1975 106   167     0     0    36.7    36.5     0.3     0.0    1.82   32.93    2.68    3.25    0.00   -1.43   11.26   26.30    0.00    0.01     0.0     0.1    0.15    0.27    0.41    0.51    1.87    3.61    3.77    0.01    0.01    0.02    0.03    0.03    0.01    0.01    0.01    0.01    0.02    0.02    0.02    0.08    0.17    0.30    0.42    0.52    1.89    3.62    3.79
 1975 107   168     0     0    36.7    36.4     0.3     0.0    1.89   32.94    2.69    3.25    0.00   -1.36   11.38   26.30    0.00    0.01     0.0     0.1    0.15    0.27    0.41    0.53    1.84    3.62    3.76    0.02    0.01    0.03    0.03    0.03    0.01    0.01    0.01    0.01    0.02    0.02    0.02    0.09    0.18    0.30    0.42    0.54    1.85    3.63    3.78
 1975 108   169     0     1    36.5    36.1     0.4     0.0    1.95   32.96    2.69    3.25    0.00   -1.30   11.53   26.37    0.00    0.01     0.0     0.1    0.14    0.27    0.41    0.50    1.80    3.60    3.77    0.02    0.01    0.04    0.04    0.04    0.01    0.01    0.02    0.01    0.02    0.02    0.02    0.09    0.18    0.31    0.42    0.52    1.82    3.62    3.79
 1975 109   170     0     1    35.6    35.1     0.4     0.0    2.03   32.98    2.70    3.25    0.00   -1.22   11.66   27.28    0.00    0.01     0.0     0.1    0.13    0.25    0.38    0.50    1.69    3.48    3.75    0.02    0.01    0.04    0.04    0.05    0.01    0.02    0.02    0.02    0.02    0.03    0.03    0.10    0.18    0.30    0.40    0.51    1.71    3.50    3.77
 1975 110   171     0     1    35.2    34.7     0.5     0.0    2.10   33.00    2.70    3.25    0.00   -1.15   11.78   27.62    0.00    0.01     0.0     0.1    0.13    0.24    0.37    0.50    1.64    3.43    3.74    0.02    0.01    0.05    0.05    0.05    0.02    0.02    0.02    0.02    0.02    0.03    0.03    0.11    0.18    0.30    0.39    0.52    1.66    3.45    3.76
 1975 111   172     0     1    35.1    34.6     0.5     0.0    2.18   33.04    2.70    3.25    0.00   -1.07   11.90   27.64    0.00    0.01     0.0     0.1    0.14    0.25    0.37    0.51    1.61    3.42    3.73    0.02    0.01    0.06    0.05    0.06    0.02    0.02    0.02    0.02    0.02    0.03    0.03    0.12    0.19    0.30    0.39    0.53    1.63    3.45    3.76
 1975 112   173     0     1    35.0    34.5     0.5     0.0    2.26   33.10    2.70    3.25    0.00   -0.99   12.07   27.64    0.00    0.02     0.0     0.1    0.15    0.26    0.38    0.49    1.58    3.42    3.73    0.01    0.01    0.06    0.05    0.06    0.02    0.02    0.02    0.02    0.03    0.03    0.03    0.13    0.20    0.32    0.40    0.52    1.60    3.44    3.76
 1975 113   174     0     1    35.0    34.4     0.6     0.0    2.35   33.19    2.70    3.25    0.00   -0.90   12.20   27.64    0.00    0.02     0.0     0.1    0.16    0.27    0.38    0.52    1.56    3.42    3.73    0.01    0.01    0.07    0.05    0.06    0.02    0.02    0.02    0.02    0.02    0.04    0.04    0.15    0.21    0.33    0.40    0.54    1.58    3.44    3.75
 1975 114   175     0     1    34.9    34.3     0.6     0.0    2.44   33.28    2.70    3.25    0.00   -0.81   12.39   27.64    0.00    0.03     0.0     0.1    0.17    0.28    0.38    0.48    1.53    3.42    3.73    0.01    0.01    0.07    0.05    0.06    0.02    0.02    0.02    0.02    0.02    0.03    0.04    0.16    0.22    0.34    0.40    0.51    1.55    3.44    3.76
 1975 115   176     0     1    34.8    34.3     0.6     0.0    2.53   33.37    2.70    3.25    0.00   -0.72   12.53   27.64    0.00    0.03     0.0     0.1    0.18    0.29    0.39    0.49    1.49    3.42    3.74    0.01    0.01    0.07    0.06    0.06    0.02    0.02    0.02    0.02    0.02    0.03    0.04    0.18    0.23    0.35    0.41    0.51    1.52    3.44    3.76
 1975 116   177     0     1    34.8    34.2     0.6     0.0    2.63   33.46    2.70    3.25    0.00   -0.62   12.67   27.64    0.00    0.03     0.0     0.1    0.19    0.30    0.39    0.49    1.46    3.41    3.74    0.01    0.01    0.08    0.06    0.06    0.02    0.02    0.02    0.02    0.02    0.03    0.04    0.19    0.24    0.36    0.41    0.51    1.49    3.44    3.76
 1975 117   178     0     1    34.7    34.2     0.6     0.0    2.75   33.56    2.70    3.25    0.00   -0.50   12.82   27.64    0.00    0.03     0.0     0.1    0.20    0.31    0.40    0.50    1.43    3.41    3.74    0.00    0.01    0.08    0.06    0.06    0.02    0.02    0.03    0.02    0.02    0.03    0.04    0.21    0.25    0.37    0.42    0.52    1.46    3.44    3.77
 1975 118   179     0     1    34.7    34.1     0.6     0.0    2.85   33.65    2.70    3.25    0.00   -0.40   12.97   27.64    0.00    0.03     0.0     0.1    0.21    0.32    0.40    0.50    1.40    3.41    3.75    0.00    0.01    0.08    0.06    0.06    0.02    0.03    0.03    0.02    0.02    0.03    0.04    0.23    0.26    0.38    0.42    0.53    1.43    3.43    3.77
 1975 119   180     0     1    34.7    34.1     0.6     0.0    2.96   33.76    2.70    3.25    0.00   -0.29   13.12   27.64    0.00    0.03     0.0     0.2    0.22    0.33    0.40    0.50    1.37    3.41    3.75    0.00    0.01    0.08    0.06    0.06    0.02    0.03    0.03    0.02    0.02    0.03    0.04    0.24    0.28    0.40    0.43    0.53    1.40    3.43    3.77
 1975 120   181     0     1    34.6    34.0     0.6     0.0    3.07   33.86    2.70    3.26    0.00   -0.18   13.28   27.64    0.00    0.03     0.0     0.2    0.23    0.34    0.41    0.51    1.34    3.41    3.75    0.00    0.01    0.09    0.06    0.07    0.03    0.03    0.03    0.02    0.02    0.03    0.04    0.26    0.29    0.41    0.43    0.54    1.37    3.43    3.78
 1975 121   182     0     1    34.5    33.9     0.6     0.0    3.17   33.95    2.70    3.26    0.00   -0.09   13.44   27.64    0.00    0.03     0.0     0.2    0.24    0.35    0.41    0.51    1.31    3.40    3.76    0.00    0.00    0.09    0.06    0.07    0.03    0.03    0.03    0.02    0.02    0.03    0.04    0.28    0.30    0.42    0.44    0.54    1.34    3.43    3.78
 1975 122   183     0     1    34.4    33.8     0.6     0.0    3.26   34.04    2.70    3.27    0.00   -0.01   13.65   27.64    0.00    0.02     0.0     0.2    0.25    0.36    0.42    0.48    1.28    3.40    3.76    0.00    0.00    0.09    0.06    0.07    0.03    0.03    0.03    0.02    0.02    0.02    0.04    0.29    0.31    0.43    0.44    0.51    1.31    3.42    3.78
 1975 123   184     0     1    34.3    33.7     0.6     0.0    3.35   34.14    2.70    3.27    0.00    0.09   13.81   27.64    0.00    0.03     0.0     0.2    0.26    0.37    0.42    0.48    1.25    3.39    3.76    0.00    0.00    0.09    0.06    0.07    0.03    0.03    0.03    0.02    0.02    0.03    0.04    0.30    0.32    0.44    0.45    0.51    1.27    3.41    3.78
 1975 124   185     0     1    34.3    33.7     0.6     0.0    3.43   34.22    2.70    3.27    0.00    0.16   13.98   27.64    0.00    0.03     0.0     0.2    0.27    0.38    0.42    0.49    1.22    3.39    3.77    0.00    0.00    0.09    0.06    0.06    0.03    0.03    0.03    0.02    0.02    0.03    0.04    0.32    0.33    0.45    0.45    0.51    1.24    3.41    3.79
 1975 125   186     0     1    34.1    33.6     0.6     0.0    3.50   34.30    2.70    3.28    0.00    0.22   14.15   27.64    0.00    0.02     0.0     0.2    0.27    0.39    0.43    0.49    1.19    3.38    3.77    0.00    0.00    0.09    0.06    0.06    0.03    0.03    0.03    0.02    0.02    0.02    0.03    0.33    0.33    0.46    0.45    0.52    1.21    3.40    3.79
 1975 126   187     0     1    34.0    33.5     0.6     0.0    3.57   34.39    2.70    3.28    0.00    0.29   14.32   27.64    0.00    0.02     0.0     0.3    0.28    0.40    0.43    0.50    1.15    3.37    3.77    0.00    0.00    0.08    0.06    0.06    0.03    0.03    0.03    0.02    0.02    0.02    0.03    0.34    0.34    0.46    0.46    0.52    1.18    3.39    3.79
 1975 127   188     0     1    33.9    33.4     0.6     0.0    3.64   34.47    2.70    3.29    0.00    0.36   14.50   27.64    0.00    0.01     0.0     0.3    0.29    0.41    0.43    0.50    1.12    3.36    3.77    0.00    0.00    0.08    0.06    0.06    0.03    0.03    0.03    0.02    0.02    0.01    0.03    0.35    0.35    0.47    0.46    0.53    1.15    3.38    3.79
 1975 128   189     0     1    33.8    33.3     0.6     0.0    3.71   34.54    2.70    3.29    0.00    0.42   14.69   27.64    0.00    0.01     0.0     0.3    0.30    0.42    0.44    0.50    1.09    3.35    3.78    0.01    0.00    0.08    0.06    0.06    0.03    0.03    0.02    0.02    0.02    0.02    0.03    0.36    0.36    0.48    0.46    0.53    1.12    3.37    3.79
 1975 129   190     0     1    33.7    33.1     0.6     0.0    3.80   34.62    2.70    3.29    0.00    0.51   14.87   27.64    0.00    0.01     0.0     0.3    0.31    0.43    0.44    0.51    1.06    3.33    3.77    0.01    0.00    0.08    0.06    0.06    0.03    0.03    0.02    0.02    0.02    0.03    0.04    0.37    0.37    0.49    0.47    0.54    1.09    3.35    3.79
 1975 130   191     0     1    33.6    33.0     0.6     0.0    3.89   34.71    2.70    3.29    0.00    0.60   15.11   27.64    0.00    0.02     0.0     0.3    0.32    0.43    0.45    0.48    1.03    3.32    3.78    0.01    0.00    0.08    0.06    0.06    0.03    0.03    0.03    0.02    0.02    0.03    0.04    0.38    0.38    0.50    0.47    0.50    1.06    3.34    3.80
 1975 131   192     0     1    33.5    32.9     0.6     0.0    3.99   34.79    2.70    3.29    0.00    0.69   15.30   27.64    0.00    0.02     0.0     0.3    0.33    0.44    0.45    0.48    1.00    3.30    3.78    0.01    0.00    0.08    0.06    0.06    0.03    0.03    0.03    0.02    0.02    0.03    0.04    0.40    0.39    0.51    0.48    0.51    1.03    3.32    3.80
 1975 132   193     0     1    33.4    32.8     0.6     0.0    4.08   34.88    2.70    3.29    0.00    0.79   15.50   27.64    0.00    0.02     0.0     0.3    0.34    0.45    0.45    0.49    0.98    3.29    3.78    0.01    0.00    0.09    0.06    0.06    0.03    0.03    0.03    0.02    0.02    0.03    0.04    0.41    0.40    0.52    0.48    0.51    1.00    3.31    3.80
 1975 133   194     0     1    33.2    32.7     0.6     0.0    4.17   34.97    2.70    3.30    0.00    0.87   15.70   27.64    0.00    0.02     0.0     0.3    0.35    0.46    0.46    0.49    0.95    3.27    3.78    0.01    0.00    0.09    0.06    0.06    0.03    0.03    0.03    0.02    0.02    0.03    0.04    0.42    0.41    0.53    0.49    0.52    0.97    3.29    3.80
 1975 134   195     0     1    33.1    32.6     0.6     0.0    4.25   35.05    2.70    3.30    0.00    0.95   15.89   27.64    0.00    0.02     0.0     0.3    0.36    0.47    0.46    0.50    0.92    3.25    3.78    0.01    0.00    0.09    0.06    0.06    0.03    0.03    0.03    0.02    0.02    0.03    0.04    0.43    0.42    0.54    0.49    0.52    0.95    3.27    3.80
 1975 135   196     0     1    33.0    32.4     0.6     0.0    4.33   35.14    2.70    3.31    0.00    1.03   16.09   27.64    0.00    0.03     0.0     0.4    0.37    0.48    0.46    0.50    0.90    3.23    3.78    0.00    0.00    0.08    0.06    0.06    0.03    0.03    0.03    0.02    0.02    0.03    0.05    0.44    0.43    0.54    0.49    0.53    0.92    3.25    3.80
 1975 136   197     0     1    32.9    32.3     0.6     0.0    4.41   35.22    2.70    3.32    0.00    1.09   16.29   27.64    0.00    0.01     0.0     0.3    0.43    0.49    0.47    0.51    0.87    3.21    3.79    0.00    0.00    0.08    0.06    0.06    0.03    0.03    0.03    0.02    0.02    0.01    0.03    0.41    0.49    0.56    0.50    0.53    0.89    3.23    3.80
 1975 137   198     0     1    32.8    32.2     0.6     0.0    4.48   35.28    2.70    3.32    0.00    1.16   16.48   27.64    0.00    0.01     0.0     0.2    0.39    0.53    0.55    0.54    0.84    3.19    3.79    0.01    0.00    0.09    0.07    0.06    0.03    0.03    0.03    0.02    0.02    0.01    0.02    0.34    0.46    0.60    0.57    0.56    0.87    3.21    3.81
 1975 138   199     0     1    32.5    31.9     0.6     0.0    4.56   35.33    2.70    3.32    0.00    1.24   16.84   27.64    0.00    0.01     0.0     0.2    0.38    0.48    0.51    0.52    0.82    3.17    3.79    0.01    0.00    0.10    0.07    0.07    0.03    0.03    0.02    0.02    0.02    0.02    0.02    0.33    0.45    0.55    0.54    0.55    0.85    3.19    3.81
 1975 139   200     0     1    31.9    31.3     0.6     0.0    4.62   35.37    2.70    3.32    0.00    1.30   17.17   27.96    0.00    0.01     0.0     0.2    0.36    0.45    0.44    0.46    0.80    3.10    3.79    0.01    0.00    0.10    0.08    0.07    0.03    0.03    0.02    0.02    0.02    0.02    0.03    0.32    0.44    0.53    0.47    0.49    0.82    3.11    3.81
 1975 140   201     0     1    31.7    31.0     0.6     0.0    4.68   35.43    2.70    3.32    0.00    1.36   17.36   28.04    0.00    0.01     0.0     0.2    0.36    0.45    0.44    0.47    0.78    3.06    3.79    0.01    0.00    0.10    0.08    0.08    0.03    0.03    0.02    0.02    0.02    0.02    0.03    0.33    0.44    0.53    0.47    0.50    0.80    3.07    3.81
 1975 141   202     0     1    31.5    30.9     0.6     0.0    4.76   35.51    2.70    3.32    0.00    1.44   17.57   28.04    0.00    0.02     0.0     0.2    0.37    0.46    0.44    0.48    0.75    3.03    3.79    0.01    0.00    0.10    0.08    0.07    0.04    0.03    0.02    0.02    0.02    0.03    0.04    0.34    0.45    0.53    0.47    0.50    0.78    3.05    3.80
 1975 142   203     0     1    31.4    30.8     0.6     0.0    4.85   35.60    2.70    3.32    0.00    1.53   17.80   28.04    0.00    0.02     0.0     0.3    0.39    0.47    0.44    0.48    0.73    3.00    3.78    0.01    0.00    0.10    0.08    0.07    0.04    0.03    0.02    0.02    0.02    0.03    0.05    0.36    0.46    0.54    0.48    0.51    0.75    3.02    3.80
 1975 143   204     0     1    31.3    30.6     0.6     0.0    4.94   35.70    2.70    3.33    0.00    1.62   18.02   28.04    0.00    0.02     0.0     0.3    0.40    0.48    0.45    0.49    0.70    2.98    3.78    0.01    0.00    0.10    0.08    0.07    0.03    0.03    0.02    0.02    0.02    0.03    0.04    0.37    0.47    0.55    0.48    0.52    0.73    3.00    3.80
 1975 144   205     0     1    31.1    30.5     0.6     0.0    5.03   35.79    2.70    3.33    0.00    1.71   18.24   28.04    0.00    0.03     0.0     0.3    0.41    0.49    0.45    0.49    0.67    2.95    3.79    0.00    0.00    0.10    0.07    0.07    0.03    0.03    0.03    0.02    0.02    0.03    0.04    0.39    0.48    0.56    0.49    0.52    0.70    2.97    3.80
 1975 145   206     0     1    31.0    30.4     0.6     0.0    5.11   35.88    2.70    3.34    0.00    1.78   18.47   28.04    0.00    0.03     0.0     0.3    0.42    0.50    0.46    0.50    0.65    2.93    3.79    0.00    0.00    0.10    0.07    0.07    0.03    0.03    0.03    0.02    0.02    0.03    0.04    0.40    0.49    0.57    0.49    0.53    0.67    2.94    3.80
 1975 146   207     0     1    30.8    30.2     0.6     0.0    5.19   35.96    2.70    3.34    0.00    1.84   18.69   28.04    0.00    0.02     0.0     0.3    0.43    0.51    0.46    0.50    0.62    2.90    3.79    0.00    0.00    0.09    0.07    0.07    0.03    0.03    0.02    0.02    0.02    0.02    0.04    0.41    0.50    0.58    0.49    0.53    0.65    2.92    3.81
 1975 147   208     0     1    30.7    30.1     0.6     0.0    5.26   36.04    2.70    3.35    0.00    1.91   18.91   28.04    0.00    0.02     0.0     0.3    0.44    0.52    0.47    0.50    0.60    2.87    3.79    0.00    0.00    0.09    0.07    0.07    0.03    0.03    0.02    0.02    0.02    0.02    0.03    0.42    0.51    0.59    0.50    0.53    0.62    2.89    3.81
 1975 148   209     0     1    30.4    29.8     0.6     0.0    5.35   36.13    2.70    3.35    0.00    2.00   19.25   28.04    0.00    0.02     0.0     0.3    0.45    0.44    0.47    0.51    0.57    2.84    3.79    0.00    0.00    0.09    0.07    0.07    0.03    0.03    0.03    0.02    0.02    0.03    0.04    0.43    0.52    0.51    0.50    0.54    0.60    2.86    3.81
[...]
 1975 162   223   210     1   163.7   163.0     0.8     0.0    7.03  126.20    2.71    5.62    2.54    1.41   92.35   27.92    0.00   30.20    43.7    32.1   15.32    3.39    1.24    0.71    1.26    3.34    3.86    0.03    0.05    0.08    0.07    0.08    0.04    0.04    0.03    0.02    0.02   30.24   43.79   32.18   15.39    3.47    1.28    0.74    1.30    3.36    3.88
 1975 163   224   210     1   163.9   163.1     0.8     0.0    7.21  126.37    2.71    5.62    2.54    1.59   92.35   27.92    0.00   31.06    43.5    32.0   15.32    3.41    1.25    0.71    1.27    3.34    3.86    0.04    0.05    0.07    0.07    0.08    0.04    0.04    0.03    0.03    0.02   31.10   43.54   32.10   15.38    3.49    1.29    0.75    1.30    3.37    3.88
 1975 164   225   210     1   164.1   163.3     0.8     0.0    7.39  126.55    2.71    5.62    2.55    1.77   92.35   27.92    0.00   31.94    43.2    31.9   15.31    3.43    1.26    0.72    1.28    3.35    3.86    0.04    0.05    0.07    0.07    0.08    0.04    0.04    0.04    0.03    0.02   31.98   43.27   32.01   15.37    3.51    1.30    0.76    1.31    3.37    3.89
 1975 165   226   210     1   164.3   163.5     0.7     0.0    7.56  126.73    2.71    5.62    2.55    1.94   92.35   27.92    0.00   32.81    43.0    31.9   15.30    3.44    1.27    0.73    1.29    3.35    3.87    0.04    0.05    0.06    0.06    0.08    0.04    0.04    0.04    0.03    0.02   32.85   43.02   31.92   15.36    3.52    1.31    0.77    1.32    3.38    3.89
 1975 166   227   210     1   164.4   163.7     0.7     0.0    7.74  126.91    2.71    5.62    2.55    2.12   92.35   27.92    0.00   33.43    42.8    31.8   15.29    3.46    1.28    0.74    1.29    3.36    3.87    0.04    0.05    0.06    0.06    0.07    0.04    0.04    0.04    0.03    0.02   33.47   42.84   31.86   15.35    3.53    1.32    0.78    1.33    3.38    3.90
 1975 167   228   210     1   164.6   163.9     0.7     0.0    7.91  127.08    2.71    5.62    2.55    2.29   92.35   27.92    0.00   34.04    42.6    31.7   15.29    3.48    1.29    0.75    1.30    3.36    3.88    0.04    0.05    0.06    0.06    0.07    0.04    0.04    0.04    0.03    0.02   34.08   42.66   31.80   15.35    3.55    1.33    0.79    1.34    3.39    3.90
 1975 168   229   210     1   164.8   164.0     0.7     0.0    8.06  127.24    2.71    5.62    2.55    2.45   92.35   27.92    0.00   34.40    42.5    31.7   15.29    3.49    1.30    0.76    1.31    3.37    3.88    0.05    0.05    0.05    0.06    0.07    0.04    0.03    0.04    0.03    0.02   34.45   42.56   31.77   15.35    3.56    1.33    0.79    1.35    3.40    3.91
 1975 169   230   210     1   164.9   164.2     0.7     0.0    8.21  127.40    2.71    5.62    2.55    2.59   92.35   27.92    0.00   34.72    42.4    31.7   15.30    3.50    1.30    0.77    1.32    3.37    3.89    0.07    0.05    0.05    0.05    0.07    0.04    0.03    0.04    0.03    0.02   34.79   42.48   31.74   15.35    3.57    1.34    0.80    1.35    3.40    3.91
 1975 170   231   210     1   165.0   164.3     0.7     0.0    8.35  127.54    2.71    5.62    2.56    2.73   92.35   27.92    0.00   35.16    42.3    31.6   15.30    3.52    1.31    0.77    1.32    3.38    3.89    0.07    0.04    0.05    0.05    0.06    0.03    0.03    0.04    0.03    0.02   35.22   42.35   31.70   15.35    3.58    1.34    0.80    1.36    3.41    3.92
 1975 171   232   210     1   165.1   164.5     0.7     0.0    8.47  127.68    2.71    5.62    2.56    2.85   92.35   27.92    0.00   35.67    42.2    31.6   15.29    3.53    1.32    0.78    1.33    3.38    3.90    0.07    0.04    0.05    0.05    0.06    0.03    0.03    0.04    0.03    0.02   35.73   42.21   31.65   15.34    3.59    1.35    0.81    1.37    3.41    3.92
 1975 172   233   210     1   165.3   164.6     0.7     0.0    8.60  127.81    2.71    5.62    2.56    2.98   92.35   27.92    0.00   36.48    41.9    31.5   15.28    3.54    1.32    0.78    1.34    3.39    3.90    0.06    0.04    0.05    0.05    0.06    0.03    0.03    0.04    0.03    0.02   36.54   41.97   31.56   15.33    3.60    1.35    0.81    1.37    3.41    3.93
 1975 173   234   210     1   165.4   164.7     0.7     0.0    8.73  127.96    2.71    5.62    2.56    3.11   92.35   27.92    0.00   37.30    41.7    31.4   15.26    3.55    1.33    0.79    1.35    3.39    3.91    0.06    0.04    0.05    0.05    0.06    0.03    0.03    0.04    0.03    0.02   37.36   41.72   31.47   15.31    3.60    1.36    0.82    1.38    3.42    3.93
 1975 174   235   210     1   165.5   164.9     0.7     0.0    8.87  128.11    2.71    5.62    2.57    3.25   92.35   27.92    0.00   38.12    41.4    31.3   15.25    3.56    1.34    0.80    1.35    3.40    3.91    0.06    0.04    0.04    0.05    0.06    0.03    0.03    0.04    0.03    0.02   38.18   41.48   31.38   15.30    3.61    1.36    0.83    1.39    3.43    3.93
 1975 175   236   210     1   165.7   165.0     0.7     0.0    9.03  128.25    2.71    5.62    2.57    3.41   92.35   27.92    0.00   38.38    41.4    31.3   15.25    3.57    1.34    0.80    1.36    3.40    3.91    0.09    0.04    0.04    0.05    0.06    0.03    0.03    0.04    0.03    0.02   38.47   41.41   31.36   15.30    3.62    1.37    0.83    1.40    3.43    3.94
 1975 176   237   210     1   165.8   165.2     0.7     0.0    9.18  128.40    2.71    5.62    2.57    3.56   92.35   27.92    0.00   38.86    41.2    31.3   15.25    3.58    1.35    0.81    1.37    3.41    3.92    0.11    0.04    0.04    0.04    0.05    0.03    0.03    0.04    0.03    0.02   38.97   41.28   31.31   15.29    3.63    1.38    0.84    1.40    3.44    3.94
 1975 177   238   210     1   166.0   165.3     0.7     0.0    9.32  128.55    2.71    5.62    2.57    3.70   92.35   27.92    0.00   39.59    41.0    31.2   15.24    3.59    1.35    0.82    1.38    3.41    3.92    0.10    0.04    0.04    0.04    0.05    0.03    0.03    0.03    0.03    0.02   39.68   41.07   31.23   15.28    3.64    1.38    0.84    1.41    3.44    3.95
 1975 178   239   210     1   166.1   165.5     0.6     0.0    9.45  128.69    2.71    5.62    2.58    3.83   92.35   27.92    0.00   40.39    40.8    31.1   15.22    3.60    1.36    0.82    1.38    3.42    3.93    0.09    0.04    0.04    0.04    0.05    0.03    0.03    0.03    0.03    0.02   40.48   40.84   31.14   15.27    3.65    1.39    0.85    1.42    3.45    3.95
 1975 179   240   210     1   166.2   165.6     0.6     0.0    9.57  128.83    2.71    5.62    2.58    3.95   92.35   27.92    0.00   41.14    40.6    31.0   15.21    3.61    1.36    0.83    1.39    3.43    3.93    0.08    0.03    0.04    0.04    0.05    0.03    0.02    0.03    0.03    0.02   41.23   40.62   31.06   15.25    3.66    1.39    0.85    1.42    3.45    3.96
 1975 180   241   210     1   165.8   165.2     0.6     0.0    9.69  128.95    2.71    5.62    2.58    4.07   92.92   27.92    0.00   41.70    40.4    30.9   15.08    3.56    1.35    0.82    1.37    3.39    3.93    0.08    0.03    0.04    0.04    0.05    0.03    0.02    0.03    0.03    0.02   41.78   40.46   30.99   15.12    3.61    1.37    0.84    1.40    3.42    3.95
 1975 181   242   210     1   165.3   164.7     0.6     0.0    9.79  129.07    2.71    5.62    2.58    4.17   93.45   27.92    0.00   42.48    40.2    30.8   14.96    3.52    1.33    0.81    1.35    3.35    3.92    0.07    0.03    0.04    0.04    0.05    0.02    0.02    0.03    0.03    0.02   42.55   40.24   30.89   15.00    3.57    1.36    0.83    1.38    3.38    3.95
 1975 182   243   210     1   164.9   164.4     0.6     0.0    9.89  129.18    2.71    5.62    2.58    4.27   93.94   27.92    0.00   43.24    40.0    30.8   14.85    3.49    1.32    0.80    1.33    3.32    3.91    0.07    0.03    0.04    0.04    0.05    0.02    0.02    0.03    0.03    0.02   43.31   40.01   30.79   14.89    3.53    1.34    0.83    1.36    3.34    3.94
 1975 183   244   210     1   164.6   164.0     0.6     0.0    9.99  129.29    2.71    5.62    2.59    4.37   94.39   27.92    0.00   44.00    39.8    30.7   14.75    3.45    1.30    0.80    1.32    3.28    3.91    0.06    0.03    0.03    0.04    0.05    0.02    0.02    0.03    0.03    0.02   44.07   39.79   30.70   14.79    3.50    1.33    0.82    1.35    3.31    3.93
 1975 184   245   210     1   164.3   163.7     0.6     0.0   10.08  129.39    2.71    5.62    2.59    4.46   94.80   27.92    0.00   44.75    39.5    30.6   14.66    3.42    1.29    0.79    1.31    3.25    3.90    0.06    0.03    0.03    0.04    0.04    0.02    0.02    0.03    0.03    0.02   44.81   39.57   30.61   14.70    3.47    1.31    0.81    1.34    3.28    3.93
 1975 185   246   210     1   164.0   163.4     0.6     0.0   10.18  129.50    2.71    5.62    2.59    4.57   95.20   27.92    0.00   45.50    39.3    30.5   14.58    3.39    1.28    0.79    1.30    3.22    3.90    0.06    0.03    0.03    0.03    0.04    0.02    0.02    0.03    0.03    0.02   45.55   39.36   30.52   14.62    3.44    1.30    0.81    1.33    3.24    3.92
 1975 186   247   210     1   163.7   163.2     0.5     0.0   10.29  129.62    2.71    5.62    2.59    4.67   95.57   27.92    0.00   46.23    39.1    30.4   14.51    3.37    1.27    0.78    1.29    3.19    3.89    0.05    0.03    0.03    0.03    0.04    0.02    0.02    0.03    0.03    0.02   46.29   39.14   30.43   14.54    3.41    1.29    0.80    1.32    3.21    3.91
 1975 187   248   210     1   163.5   162.9     0.5     0.0   10.40  129.73    2.71    5.62    2.59    4.78   95.92   27.92    0.00   46.97    38.9    30.3   14.44    3.34    1.26    0.78    1.28    3.16    3.88    0.05    0.03    0.03    0.03    0.04    0.02    0.02    0.03    0.03    0.02   47.02   38.93   30.34   14.48    3.39    1.28    0.80    1.31    3.19    3.91
 1975 188   249   210     1   163.2   162.7     0.5     0.0   10.51  129.84    2.71    5.62    2.60    4.89   96.25   27.92    0.00   47.70    38.7    30.2   14.38    3.32    1.25    0.78    1.27    3.13    3.88    0.05    0.03    0.03    0.03    0.04    0.02    0.02    0.03    0.03    0.02   47.75   38.72   30.26   14.41    3.37    1.27    0.80    1.30    3.16    3.90
 1975 189   250   210     1   163.0   162.5     0.5     0.0   10.63  129.95    2.71    5.62    2.60    5.01   96.56   27.92    0.00   48.43    38.5    30.1   14.33    3.30    1.24    0.77    1.27    3.10    3.87    0.06    0.03    0.03    0.03    0.04    0.02    0.02    0.03    0.03    0.02   48.49   38.51   30.17   14.36    3.34    1.27    0.79    1.29    3.13    3.90
 1975 190   251   210     1   162.9   162.3     0.5     0.0   10.75  130.07    2.71    5.62    2.60    5.13   96.86   27.92    0.00   49.15    38.3    30.1   14.27    3.29    1.24    0.77    1.26    3.08    3.87    0.06    0.03    0.03    0.03    0.04    0.02    0.02    0.02    0.03    0.02   49.21   38.30   30.09   14.31    3.33    1.26    0.79    1.28    3.11    3.89
 1975 191   252   210     1   162.7   162.2     0.5     0.0   10.87  130.19    2.71    5.62    2.60    5.25   97.14   27.92    0.00   49.88    38.1    30.0   14.23    3.27    1.23    0.77    1.25    3.05    3.86    0.06    0.03    0.03    0.03    0.04    0.02    0.02    0.02    0.03    0.02   49.94   38.10   30.00   14.26    3.31    1.25    0.79    1.28    3.08    3.88
 1975 192   253   210     1   162.6   162.0     0.5     0.0   10.99  130.31    2.71    5.62    2.60    5.38   97.41   27.92    0.00   50.59    37.9    29.9   14.18    3.25    1.23    0.77    1.25    3.03    3.85    0.07    0.04    0.03    0.03    0.04    0.02    0.02    0.02    0.03    0.02   50.66   37.89   29.92   14.22    3.30    1.25    0.79    1.27    3.06    3.88
 1975 193   254   210     1   162.4   161.9     0.5     0.0   11.12  130.44    2.71    5.62    2.61    5.50   97.67   27.92    0.00   51.31    37.7    29.8   14.15    3.24    1.22    0.76    1.24    3.01    3.85    0.07    0.04    0.03    0.03    0.04    0.02    0.02    0.02    0.03    0.02   51.37   37.69   29.84   14.18    3.28    1.24    0.78    1.27    3.04    3.87
 1975 194   255   210     1   162.3   161.8     0.5     0.0   11.26  130.56    2.71    5.62    2.61    5.64   97.92   27.92    0.00   52.02    37.5    29.7   14.11    3.23    1.21    0.76    1.24    2.99    3.84    0.08    0.04    0.03    0.03    0.04    0.02    0.02    0.02    0.03    0.02   52.11   37.49   29.76   14.14    3.27    1.23    0.78    1.26    3.01    3.87
 1975 195   256   210     1   161.5   161.0     0.5     0.0   11.38  130.69    2.71    5.62    2.61    5.76   98.85   27.92    0.00   51.48    37.3    29.6   14.08    3.22    1.21    0.76    1.23    2.97    3.84    0.08    0.04    0.03    0.03    0.04    0.02    0.02    0.02    0.03    0.03   51.56   37.29   29.68   14.10    3.26    1.23    0.78    1.26    2.99    3.86
 1975 196   257   210     1   161.4   160.9     0.5     0.0   11.52  130.82    2.71    5.62    2.61    5.90   99.08   27.92    0.00   52.19    37.1    29.6   14.04    3.21    1.21    0.76    1.23    2.95    3.83    0.09    0.04    0.03    0.03    0.04    0.02    0.02    0.02    0.03    0.03   52.28   37.09   29.59   14.07    3.25    1.23    0.78    1.25    2.97    3.86
 1975 197   258   210     1   161.3   160.8     0.5     0.0   11.65  130.95    2.71    5.62    2.62    6.03   99.30   27.92    0.00   52.90    36.9    29.5   14.01    3.20    1.20    0.76    1.23    2.93    3.83    0.09    0.04    0.03    0.03    0.04    0.02    0.02    0.02    0.03    0.03   52.99   36.89   29.51   14.04    3.24    1.22    0.78    1.25    2.95    3.85
 1975 198   259   210     1   161.0   160.5     0.5     0.0   11.78  131.08    2.71    5.62    2.62    6.16   99.70   27.92    0.00   53.26    36.7    29.4   13.99    3.19    1.20    0.76    1.22    2.91    3.82    0.09    0.04    0.03    0.03    0.04    0.02    0.02    0.02    0.03    0.03   53.35   36.70   29.44   14.02    3.23    1.22    0.78    1.25    2.94    3.85
 1975 199   260   210     1   161.0   160.4     0.6     0.0   11.95  131.22    2.71    5.62    2.62    6.34   99.90   27.92    0.00   53.96    36.5    29.3   13.96    3.18    1.20    0.76    1.22    2.89    3.82    0.16    0.04    0.03    0.03    0.04    0.02    0.02    0.02    0.03    0.03   54.12   36.50   29.36   13.99    3.22    1.21    0.78    1.24    2.92    3.85
 1975 200   261   210     1   150.3   149.7     0.6     0.0   12.11  131.36    2.71    5.62    2.63    6.49  110.77   27.92    0.00   35.29    36.3    29.2   13.94    3.18    1.19    0.76    1.22    2.88    3.82    0.18    0.04    0.03    0.03    0.04    0.02    0.02    0.02    0.03    0.03   35.47   36.31   29.28   13.97    3.21    1.21    0.78    1.24    2.90    3.84
 1975 201   262   210     1   146.9   146.3     0.6     0.0   12.25  131.50    2.71    5.62    2.63    6.63  114.27   27.92    0.00   29.93    36.1    29.2   13.92    3.17    1.19    0.76    1.21    2.86    3.81    0.18    0.04    0.03    0.03    0.04    0.02    0.02    0.02    0.03    0.03   30.11   36.13   29.21   13.94    3.21    1.21    0.78    1.24    2.89    3.84
 1975 202   263   210     1   145.9   145.3     0.6     0.0   12.38  131.64    2.71    5.62    2.63    6.76  115.43   27.92    0.00   28.89    35.9    29.1   13.89    3.16    1.19    0.76    1.21    2.84    3.81    0.16    0.04    0.03    0.03    0.04    0.02    0.02    0.02    0.03    0.03   29.05   35.94   29.13   13.92    3.20    1.20    0.78    1.23    2.87    3.83
 1975 203   264   210     1   145.8   145.2     0.6     0.0   12.50  131.77    2.71    5.62    2.64    6.88  115.66   27.92    0.00   29.51    35.7    29.0   13.87    3.15    1.18    0.76    1.21    2.83    3.80    0.15    0.04    0.03    0.03    0.04    0.02    0.02    0.02    0.03    0.03   29.65   35.75   29.05   13.90    3.19    1.20    0.78    1.23    2.85    3.83
 1975 204   265   210     1   145.7   145.2     0.5     0.0   12.62  131.89    2.71    5.62    2.64    7.00  115.85   27.92    0.00   30.19    35.5    28.9   13.85    3.15    1.18    0.76    1.20    2.81    3.80    0.13    0.04    0.03    0.03    0.04    0.02    0.02    0.02    0.03    0.03   30.33   35.56   28.97   13.88    3.18    1.20    0.78    1.23    2.84    3.82
 1975 205   266   210     1   145.6   145.1     0.5     0.0   12.74  132.02    2.71    5.62    2.64    7.12  116.03   27.92    0.00   30.88    35.3    28.9   13.83    3.14    1.18    0.76    1.20    2.80    3.79    0.13    0.04    0.03    0.03    0.04    0.02    0.02    0.02    0.03    0.03   31.01   35.37   28.89   13.85    3.18    1.20    0.78    1.22    2.82    3.82
 1975 206   267   210     1   145.6   145.0     0.5     0.0   12.86  132.13    2.71    5.62    2.65    7.24  116.20   27.92    0.00   31.56    35.1    28.8   13.81    3.14    1.17    0.76    1.20    2.78    3.79    0.13    0.04    0.03    0.02    0.04    0.02    0.02    0.02    0.02    0.02   31.69   35.19   28.81   13.83    3.17    1.19    0.78    1.22    2.81    3.81
 1975 207   268   210     1   145.2   144.6     0.5     0.0   12.96  132.25    2.71    5.62    2.65    7.34  116.73   27.92    0.00   31.58    35.0    28.7   13.79    3.13    1.17    0.76    1.20    2.77    3.78    0.13    0.04    0.03    0.02    0.03    0.02    0.02    0.02    0.02    0.02   31.70   35.00   28.74   13.81    3.16    1.19    0.77    1.22    2.79    3.81
 1975 208   269   210     1   145.1   144.6     0.5     0.0   13.07  132.36    2.71    5.62    2.65    7.45  116.88   27.92    0.00   32.25    34.8    28.6   13.77    3.12    1.17    0.76    1.19    2.75    3.78    0.12    0.04    0.03    0.02    0.03    0.02    0.02    0.02    0.02    0.02   32.37   34.81   28.66   13.80    3.16    1.19    0.77    1.21    2.78    3.80
 1975 209   270   210     1   145.1   144.5     0.5     0.0   13.18  132.47    2.71    5.62    2.65    7.56  117.03   27.92    0.00   32.92    34.6    28.6   13.75    3.12    1.17    0.76    1.19    2.74    3.77    0.11    0.04    0.03    0.02    0.03    0.02    0.02    0.02    0.02    0.02   33.03   34.63   28.58   13.78    3.15    1.18    0.77    1.21    2.77    3.80
 1975 210   271   210     1   145.0   144.5     0.5     0.0   13.29  132.59    2.71    5.62    2.66    7.67  117.18   27.92    0.00   33.58    34.4    28.5   13.74    3.12    1.17    0.76    1.19    2.73    3.77    0.11    0.04    0.03    0.02    0.03    0.02    0.02    0.02    0.02    0.02   33.69   34.45   28.51   13.76    3.15    1.18    0.77    1.21    2.75    3.79
 1975 211   272   210     1   145.0   144.5     0.5     0.0   13.41  132.71    2.71    5.62    2.66    7.79  117.32   27.92    0.00   34.24    34.2    28.4   13.72    3.11    1.16    0.76    1.19    2.72    3.76    0.10    0.04    0.03    0.02    0.03    0.02    0.02    0.02    0.02    0.02   34.34   34.27   28.43   13.74    3.15    1.18    0.78    1.21    2.74    3.79
 1975 212   273   210     1   145.0   144.5     0.5     0.0   13.54  132.84    2.71    5.62    2.66    7.92  117.46   27.92    0.00   34.89    34.1    28.3   13.71    3.11    1.16    0.76    1.19    2.71    3.76    0.09    0.04    0.03    0.02    0.03    0.02    0.02    0.02    0.02    0.03   34.98   34.09   28.36   13.73    3.15    1.18    0.78    1.21    2.73    3.79
 1975 213   274   210     1   145.0   144.5     0.5     0.0   13.67  132.97    2.71    5.62    2.66    8.05  117.60   27.92    0.00   35.54    33.9    28.3   13.69    3.11    1.16    0.76    1.19    2.70    3.76    0.08    0.04    0.03    0.02    0.03    0.02    0.02    0.02    0.02    0.03   35.62   33.91   28.29   13.71    3.15    1.18    0.78    1.21    2.72    3.78
 1975 214   275   210     1   145.0   144.5     0.5     0.0   13.79  133.10    2.71    5.62    2.66    8.17  117.73   27.92    0.00   36.19    33.7    28.2   13.68    3.11    1.16    0.76    1.19    2.69    3.75    0.07    0.04    0.03    0.02    0.03    0.02    0.02    0.02    0.02    0.03   36.26   33.74   28.21   13.70    3.14    1.18    0.78    1.21    2.71    3.78
