*SOIL ORGANIC N BALANCE

*DSSAT Cropping System Model Ver. 4.8.2.010 -develop  JUL 08, 2024 16:11:18

*RUN   1        : 0 KG N/HA                 CSCER048 RORO7401    1
 MODEL          : CSCER048 - Wheat
 EXPERIMENT     : RORO7401 WH N RESPONSE,ROTHAMSTED  8FE(N)  (DSSAT3)
 DATA PATH      : C:\DSSAT48\Wheat\
 TREATMENT  1   : 0 KG N/HA                 CSCER048
  


!                                        INITIAL Year/Doy      FINAL Year/Doy
!                                                1974/305            1975/214
!SOIL N BALANCE                                 -----------kg N/ha-----------

!   Soil Humus N                                  7867.50             7852.86
!   Soil Litter N                                   27.10               31.62
!   N in Surface Residue                             0.00                2.76

!   Added to / Removed from Soil:
!   N in Harvest Residues from Previous Crop         0.00
!   N from Organic Applications                      0.00
!   N from senesced plant matter                     3.30
!   N immobilized                                    3.52
!   N mineralized                                                       14.18

!   Total N balance                               7901.42             7901.42
!   Balance                                                             0.000

!===============================================================================

*DSSAT Cropping System Model Ver. 4.8.2.010 -develop  JUL 08, 2024 16:11:18

*RUN   2        : 30 KG N/HA                CSCER048 RORO7401    2
 MODEL          : CSCER048 - Wheat
 EXPERIMENT     : RORO7401 WH N RESPONSE,ROTHAMSTED  8FE(N)  (DSSAT3)
 DATA PATH      : C:\DSSAT48\Wheat\
 TREATMENT  2   : 30 KG N/HA                CSCER048
  


!                                        INITIAL Year/Doy      FINAL Year/Doy
!                                                1974/305            1975/214
!SOIL N BALANCE                                 -----------kg N/ha-----------

!   Soil Humus N                                  7867.50             7855.10
!   Soil Litter N                                   27.10               32.36
!   N in Surface Residue                             0.00                1.67

!   Added to / Removed from Soil:
!   N in Harvest Residues from Previous Crop         0.00
!   N from Organic Applications                      0.00
!   N from senesced plant matter                     2.50
!   N immobilized                                    5.29
!   N mineralized                                                       13.27

!   Total N balance                               7902.39             7902.39
!   Balance                                                             0.000

!===============================================================================

*DSSAT Cropping System Model Ver. 4.8.2.010 -develop  JUL 08, 2024 16:11:18

*RUN   3        : 60 KG N/HA                CSCER048 RORO7401    3
 MODEL          : CSCER048 - Wheat
 EXPERIMENT     : RORO7401 WH N RESPONSE,ROTHAMSTED  8FE(N)  (DSSAT3)
 DATA PATH      : C:\DSSAT48\Wheat\
 TREATMENT  3   : 60 KG N/HA                CSCER048
  


!                                        INITIAL Year/Doy      FINAL Year/Doy
!                                                1974/305            1975/214
!SOIL N BALANCE                                 -----------kg N/ha-----------

!   Soil Humus N                                  7867.50             7855.45
!   Soil Litter N                                   27.10               32.18
!   N in Surface Residue                             0.00                1.64

!   Added to / Removed from Soil:
!   N in Harvest Residues from Previous Crop         0.00
!   N from Organic Applications                      0.00
!   N from senesced plant matter                     2.58
!   N immobilized                                    5.54
!   N mineralized                                                       13.45

!   Total N balance                               7902.72             7902.72
!   Balance                                                             0.000

!===============================================================================

*DSSAT Cropping System Model Ver. 4.8.2.010 -develop  JUL 08, 2024 16:11:18

*RUN   4        : 90 KG N/HA                CSCER048 RORO7401    4
 MODEL          : CSCER048 - Wheat
 EXPERIMENT     : RORO7401 WH N RESPONSE,ROTHAMSTED  8FE(N)  (DSSAT3)
 DATA PATH      : C:\DSSAT48\Wheat\
 TREATMENT  4   : 90 KG N/HA                CSCER048
  


!                                        INITIAL Year/Doy      FINAL Year/Doy
!                                                1974/305            1975/214
!SOIL N BALANCE                                 -----------kg N/ha-----------

!   Soil Humus N                                  7867.50             7855.58
!   Soil Litter N                                   27.10               32.05
!   N in Surface Residue                             0.00                1.65

!   Added to / Removed from Soil:
!   N in Harvest Residues from Previous Crop         0.00
!   N from Organic Applications                      0.00
!   N from senesced plant matter                     2.60
!   N immobilized                                    5.57
!   N mineralized                                                       13.49

!   Total N balance                               7902.77             7902.77
!   Balance                                                             0.000

!===============================================================================

*DSSAT Cropping System Model Ver. 4.8.2.010 -develop  JUL 08, 2024 16:11:18

*RUN   5        : 120 KG N/HA               CSCER048 RORO7401    5
 MODEL          : CSCER048 - Wheat
 EXPERIMENT     : RORO7401 WH N RESPONSE,ROTHAMSTED  8FE(N)  (DSSAT3)
 DATA PATH      : C:\DSSAT48\Wheat\
 TREATMENT  5   : 120 KG N/HA               CSCER048
  


!                                        INITIAL Year/Doy      FINAL Year/Doy
!                                                1974/305            1975/214
!SOIL N BALANCE                                 -----------kg N/ha-----------

!   Soil Humus N                                  7867.50             7855.57
!   Soil Litter N                                   27.10               31.93
!   N in Surface Residue                             0.00                1.65

!   Added to / Removed from Soil:
!   N in Harvest Residues from Previous Crop         0.00
!   N from Organic Applications                      0.00
!   N from senesced plant matter                     2.60
!   N immobilized                                    5.60
!   N mineralized                                                       13.65

!   Total N balance                               7902.80             7902.80
!   Balance                                                             0.001

!===============================================================================

*DSSAT Cropping System Model Ver. 4.8.2.010 -develop  JUL 08, 2024 16:11:18

*RUN   6        : 150 KG N/HA               CSCER048 RORO7401    6
 MODEL          : CSCER048 - Wheat
 EXPERIMENT     : RORO7401 WH N RESPONSE,ROTHAMSTED  8FE(N)  (DSSAT3)
 DATA PATH      : C:\DSSAT48\Wheat\
 TREATMENT  6   : 150 KG N/HA               CSCER048
  


!                                        INITIAL Year/Doy      FINAL Year/Doy
!                                                1974/305            1975/214
!SOIL N BALANCE                                 -----------kg N/ha-----------

!   Soil Humus N                                  7867.50             7855.53
!   Soil Litter N                                   27.10               31.88
!   N in Surface Residue                             0.00                1.65

!   Added to / Removed from Soil:
!   N in Harvest Residues from Previous Crop         0.00
!   N from Organic Applications                      0.00
!   N from senesced plant matter                     2.60
!   N immobilized                                    5.61
!   N mineralized                                                       13.75

!   Total N balance                               7902.81             7902.82
!   Balance                                                             0.000

!===============================================================================

*DSSAT Cropping System Model Ver. 4.8.2.010 -develop  JUL 08, 2024 16:11:18

*RUN   7        : 180 KG N/HA               CSCER048 RORO7401    7
 MODEL          : CSCER048 - Wheat
 EXPERIMENT     : RORO7401 WH N RESPONSE,ROTHAMSTED  8FE(N)  (DSSAT3)
 DATA PATH      : C:\DSSAT48\Wheat\
 TREATMENT  7   : 180 KG N/HA               CSCER048
  


!                                        INITIAL Year/Doy      FINAL Year/Doy
!                                                1974/305            1975/214
!SOIL N BALANCE                                 -----------kg N/ha-----------

!   Soil Humus N                                  7867.50             7855.50
!   Soil Litter N                                   27.10               31.87
!   N in Surface Residue                             0.00                1.65

!   Added to / Removed from Soil:
!   N in Harvest Residues from Previous Crop         0.00
!   N from Organic Applications                      0.00
!   N from senesced plant matter                     2.61
!   N immobilized                                    5.62
!   N mineralized                                                       13.79

!   Total N balance                               7902.82             7902.82
!   Balance                                                             0.001

!===============================================================================

*DSSAT Cropping System Model Ver. 4.8.2.010 -develop  JUL 08, 2024 16:11:19

*RUN   8        : 210 KG N/HA               CSCER048 RORO7401    8
 MODEL          : CSCER048 - Wheat
 EXPERIMENT     : RORO7401 WH N RESPONSE,ROTHAMSTED  8FE(N)  (DSSAT3)
 DATA PATH      : C:\DSSAT48\Wheat\
 TREATMENT  8   : 210 KG N/HA               CSCER048
  


!                                        INITIAL Year/Doy      FINAL Year/Doy
!                                                1974/305            1975/214
!SOIL N BALANCE                                 -----------kg N/ha-----------

!   Soil Humus N                                  7867.50             7855.51
!   Soil Litter N                                   27.10               31.88
!   N in Surface Residue                             0.00                1.65

!   Added to / Removed from Soil:
!   N in Harvest Residues from Previous Crop         0.00
!   N from Organic Applications                      0.00
!   N from senesced plant matter                     2.61
!   N immobilized                                    5.62
!   N mineralized                                                       13.79

!   Total N balance                               7902.83             7902.83
!   Balance                                                             0.000
