*SOIL WATER DAILY OUTPUT FILE

*DSSAT Cropping System Model Ver. 4.8.2.010 -develop  JUL 08, 2024 16:11:18

*RUN   1        : 0 KG N/HA                 CSCER048 RORO7401    1
 MODEL          : CSCER048 - Wheat
 EXPERIMENT     : RORO7401 WH N RESPONSE,ROTHAMSTED  8FE(N)  (DSSAT3)
 DATA PATH      : C:\DSSAT48\Wheat\
 TREATMENT  1   : 0 KG N/HA                 CSCER048
  
!                                                                                                                                   Soil water content (mm3/mm3) by soil depth (cm):
!                                                                                                                                   0-5    5-15   15-25   25-35   35-45   45-55   55-65   65-95  95-125 125-155
@YEAR DOY   DAS    SWTD    SWXD    ROFC    DRNC    PREC    IR#C    IRRC   LATFC    DTWT    MWTD    TDFD    TDFC    ROFD    ROSD    SW1D    SW2D    SW3D    SW4D    SW5D    SW6D    SW7D    SW8D    SW9D   SW10D
 1974 304     0     512     192       0       0       0       0       0       0     155    0.00     0.0     0.0    0.00    0.00   0.330   0.330   0.330   0.330   0.330   0.330   0.330   0.330   0.330   0.330
 1974 305     1     512     193       0       0       1       0       0       0     155    0.00     0.0     0.0    0.00    0.00   0.307   0.324   0.337   0.347   0.330   0.330   0.330   0.330   0.330   0.330
 1974 306     2     512     193       0       0       1       0       0       0     155    0.00     0.0     0.0    0.00    0.00   0.298   0.316   0.336   0.364   0.330   0.330   0.330   0.330   0.330   0.330
 1974 307     3     515     196       0       0       5       0       0       0     155    0.00     0.0     0.0    0.00    0.00   0.305   0.321   0.339   0.376   0.336   0.329   0.330   0.330   0.330   0.330
 1974 308     4     514     195       0       0       5       0       0       0     155    0.00     0.0     0.0    0.00    0.00   0.290   0.310   0.329   0.372   0.365   0.329   0.329   0.329   0.330   0.330
 1974 309     5     514     194       0       0       5       0       0       0     155    0.00     0.0     0.0    0.00    0.00   0.282   0.304   0.324   0.372   0.369   0.335   0.329   0.329   0.329   0.329
 1974 310     6     514     194       0       0       5       0       0       0     155    0.00     0.0     0.0    0.00    0.00   0.283   0.302   0.323   0.372   0.372   0.335   0.329   0.329   0.329   0.329
 1974 311     7     515     195       0       0       6       0       0       0     155    0.00     0.0     0.0    0.00    0.00   0.295   0.304   0.323   0.373   0.372   0.337   0.329   0.329   0.329   0.329
 1974 312     8     515     195       0       0       7       0       0       0     155    0.00     0.0     0.0    0.00    0.00   0.290   0.304   0.323   0.373   0.372   0.339   0.328   0.329   0.329   0.329
 1974 313     9     517     197       0       0       9       0       0       0     155    0.00     0.0     0.0    0.00    0.00   0.307   0.308   0.326   0.374   0.373   0.343   0.328   0.329   0.329   0.329
 1974 314    10     520     201       0       0      13       0       0       0     155    0.00     0.0     0.0    0.00    0.00   0.304   0.325   0.335   0.380   0.376   0.349   0.328   0.328   0.329   0.329
 1974 315    11     525     206       0       0      18       0       0       0     155    0.00     0.0     0.0    0.00    0.00   0.307   0.337   0.346   0.388   0.382   0.361   0.328   0.328   0.329   0.329
 1974 316    12     525     205       0       0      19       0       0       0     155    0.00     0.0     0.0    0.00    0.00   0.295   0.321   0.343   0.390   0.386   0.373   0.331   0.328   0.328   0.329
 1974 317    13     549     230       2       0      45       0       0       0     155    0.00     0.0     0.0    1.91    0.00   0.307   0.337   0.370   0.395   0.395   0.395   0.395   0.361   0.328   0.329
 1974 318    14     556     237       2       0      53       0       0       0     155    0.00     0.0     0.0    0.03    0.00   0.306   0.337   0.370   0.395   0.395   0.395   0.395   0.377   0.336   0.329
 1974 319    15     560     240       2       0      57       0       0       0     155    0.00     0.0     0.0    0.00    0.00   0.305   0.336   0.363   0.394   0.395   0.395   0.395   0.380   0.346   0.328
 1974 320    16     562     243       2       0      60       0       0       0     155    0.00     0.0     0.0    0.00    0.00   0.305   0.333   0.358   0.395   0.395   0.395   0.395   0.381   0.358   0.328
 1974 321    17     591     272       6       0      93       0       0       0     155    0.00     0.0     0.0    3.89    0.00   0.305   0.337   0.369   0.395   0.395   0.395   0.395   0.395   0.395   0.369
 1974 322    18     592     272       6       3      97       0       0       0     149    0.00     0.0     0.0    0.00    0.00   0.307   0.337   0.363   0.395   0.395   0.395   0.395   0.389   0.392   0.381
 1974 323    19     593     274       6       8     104       0       0       0     146    0.00     0.0     0.0    0.02    0.00   0.304   0.336   0.369   0.394   0.394   0.395   0.395   0.390   0.391   0.386
 1974 324    20     597     277       6      14     113       0       0       0     144    0.00     0.0     0.0    0.07    0.00   0.307   0.337   0.370   0.395   0.395   0.395   0.395   0.394   0.392   0.389
 1974 325    21     599     280       7      26     130       0       0       0     140    0.00     0.0     0.0    0.69    0.00   0.307   0.337   0.370   0.395   0.395   0.395   0.395   0.395   0.395   0.395
 1974 326    22     592     273       7      33     130       0       0       0     141    0.00     0.0     0.0    0.00    0.00   0.296   0.322   0.356   0.395   0.395   0.395   0.395   0.388   0.392   0.393
 1974 327    23     586     267       7      39     130       0       0       0     143    0.00     0.0     0.0    0.00    0.00   0.291   0.313   0.344   0.394   0.395   0.395   0.395   0.383   0.387   0.390
 1974 328    24     583     263       7      45     132       0       0       0     145    0.00     0.0     0.0    0.00    0.00   0.303   0.311   0.338   0.391   0.393   0.394   0.394   0.381   0.384   0.387
 1974 329    25     569     250       7      57     132       0       0       0     150    0.00     0.0     0.0    0.00    0.00   0.289   0.304   0.328   0.380   0.381   0.381   0.382   0.375   0.377   0.378
 1974 330    26     567     248       7      60     132       0       0       0     151    0.00     0.0     0.0    0.00    0.00   0.289   0.304   0.326   0.378   0.379   0.380   0.381   0.374   0.375   0.377
 1974 331    27     566     247       7      61     133       0       0       0     152    0.00     0.0     0.0    0.00    0.00   0.296   0.305   0.325   0.377   0.378   0.379   0.380   0.374   0.375   0.376
 1974 332    28     567     247       7      63     136       0       0       0     152    0.00     0.0     0.0    0.00    0.00   0.306   0.311   0.328   0.377   0.377   0.378   0.379   0.373   0.374   0.375
 1974 333    29     569     249       7      64     139       0       0       0     153    0.00     0.0     0.0    0.00    0.00   0.306   0.322   0.335   0.381   0.379   0.379   0.379   0.373   0.373   0.374
 1974 334    30     563     244       7      69     139       0       0       0     154    0.00     0.0     0.0    0.00    0.00   0.292   0.311   0.327   0.375   0.374   0.374   0.374   0.373   0.372   0.372
 1974 335    31     563     243       7      70     140       0       0       0     154    0.00     0.0     0.0    0.00    0.00   0.288   0.307   0.327   0.376   0.375   0.375   0.374   0.372   0.372   0.372
 1974 336    32     560     241       7      72     140       0       0       0     154    0.00     0.0     0.0    0.00    0.00   0.283   0.303   0.323   0.373   0.372   0.372   0.372   0.372   0.372   0.372
 1974 337    33     560     240       7      72     140       0       0       0     154    0.00     0.0     0.0    0.00    0.00   0.281   0.301   0.322   0.373   0.372   0.372   0.372   0.372   0.372   0.372
 1974 338    34     559     240       7      72     140       0       0       0     154    0.00     0.0     0.0    0.00    0.00   0.279   0.300   0.321   0.372   0.372   0.372   0.372   0.372   0.372   0.372
 1974 339    35     559     240       7      72     140       0       0       0     154    0.00     0.0     0.0    0.00    0.00   0.277   0.300   0.321   0.372   0.372   0.372   0.372   0.372   0.371   0.372
 1974 340    36     559     239       7      72     140       0       0       0     154    0.00     0.0     0.0    0.00    0.00   0.276   0.299   0.320   0.372   0.372   0.371   0.371   0.372   0.371   0.371
 1974 341    37     558     239       7      72     140       0       0       0     154    0.00     0.0     0.0    0.00    0.00   0.275   0.299   0.320   0.372   0.371   0.371   0.371   0.371   0.371   0.371
 1974 342    38     559     239       7      72     140       0       0       0     154    0.00     0.0     0.0    0.00    0.00   0.282   0.300   0.320   0.372   0.371   0.371   0.371   0.371   0.371   0.371
 1974 343    39     559     239       7      72     140       0       0       0     154    0.00     0.0     0.0    0.00    0.00   0.281   0.300   0.320   0.371   0.371   0.371   0.371   0.371   0.371   0.371
 1974 344    40     566     246       7      72     148       0       0       0     154    0.00     0.0     0.0    0.00    0.00   0.306   0.331   0.335   0.378   0.375   0.373   0.372   0.372   0.371   0.371
 1974 345    41     569     250       7      72     151       0       0       0     154    0.00     0.0     0.0    0.00    0.00   0.306   0.332   0.344   0.386   0.380   0.376   0.374   0.372   0.373   0.371
 1974 346    42     573     253       7      73     156       0       0       0     154    0.00     0.0     0.0    0.00    0.00   0.307   0.337   0.350   0.393   0.387   0.382   0.378   0.372   0.372   0.372
 1974 347    43     565     246       7      80     156       0       0       0     154    0.00     0.0     0.0    0.00    0.00   0.292   0.318   0.335   0.381   0.378   0.376   0.374   0.372   0.372   0.372
 1974 348    44     565     245       7      80     156       0       0       0     154    0.00     0.0     0.0    0.00    0.00   0.288   0.310   0.332   0.382   0.380   0.378   0.376   0.372   0.372   0.372
 1974 349    45     564     244       7      81     156       0       0       0     154    0.00     0.0     0.0    0.00    0.00   0.284   0.305   0.329   0.380   0.380   0.379   0.377   0.372   0.372   0.372
 1974 350    46     565     246       7      82     158       0       0       0     154    0.00     0.0     0.0    0.00    0.00   0.304   0.308   0.328   0.379   0.380   0.379   0.378   0.372   0.372   0.372
 1974 351    47     562     242       7      85     158       0       0       0     154    0.00     0.0     0.0    0.00    0.00   0.290   0.303   0.324   0.374   0.374   0.374   0.374   0.372   0.372   0.372
 1974 352    48     561     241       7      85     158       0       0       0     154    0.00     0.0     0.0    0.00    0.00   0.285   0.302   0.323   0.373   0.374   0.374   0.374   0.372   0.372   0.372
 1974 353    49     560     240       7      86     158       0       0       0     154    0.00     0.0     0.0    0.00    0.00   0.282   0.302   0.323   0.372   0.372   0.372   0.372   0.372   0.372   0.372
 1974 354    50     560     240       7      86     158       0       0       0     154    0.00     0.0     0.0    0.00    0.00   0.281   0.302   0.322   0.371   0.372   0.372   0.372   0.371   0.372   0.372
 1974 355    51     561     242       7      86     160       0       0       0     154    0.00     0.0     0.0    0.00    0.00   0.302   0.305   0.324   0.373   0.372   0.372   0.372   0.372   0.372   0.372
 1974 356    52     563     243       7      86     162       0       0       0     154    0.00     0.0     0.0    0.00    0.00   0.306   0.309   0.327   0.375   0.373   0.373   0.372   0.373   0.372   0.372
 1974 357    53     562     243       7      87     162       0       0       0     154    0.00     0.0     0.0    0.00    0.00   0.297   0.308   0.327   0.376   0.374   0.373   0.373   0.372   0.372   0.372
 1974 358    54     563     243       7      87     163       0       0       0     154    0.00     0.0     0.0    0.00    0.00   0.297   0.307   0.327   0.376   0.375   0.374   0.373   0.373   0.371   0.371
 1974 359    55     566     247       7      87     167       0       0       0     154    0.00     0.0     0.0    0.00    0.00   0.307   0.320   0.333   0.380   0.377   0.376   0.375   0.372   0.372   0.372
 1974 360    56     574     255       7      88     176       0       0       0     154    0.00     0.0     0.0    0.04    0.00   0.306   0.337   0.363   0.395   0.388   0.382   0.378   0.372   0.372   0.372
 1974 361    57     574     254       7      88     176       0       0       0     154    0.00     0.0     0.0    0.00    0.00   0.295   0.321   0.352   0.395   0.395   0.388   0.383   0.373   0.373   0.372
 1974 362    58     573     253       7      89     176       0       0       0     153    0.00     0.0     0.0    0.00    0.00   0.289   0.312   0.342   0.393   0.394   0.391   0.387   0.374   0.373   0.373
 1974 363    59     571     252       7      90     176       0       0       0     153    0.00     0.0     0.0    0.00    0.00   0.285   0.307   0.334   0.389   0.391   0.391   0.389   0.375   0.374   0.374
 1974 364    60     564     244       7      97     176       0       0       0     154    0.00     0.0     0.0    0.00    0.00   0.281   0.303   0.327   0.379   0.380   0.380   0.379   0.372   0.372   0.372
 1974 365    61     561     242       7     100     176       0       0       0     154    0.00     0.0     0.0    0.00    0.00   0.280   0.302   0.323   0.374   0.375   0.375   0.375   0.372   0.372   0.372
 1975 001    62     562     243       7     100     178       0       0       0     154    0.00     0.0     0.0    0.00    0.00   0.297   0.304   0.324   0.374   0.374   0.375   0.375   0.372   0.372   0.372
 1975 002    63     560     241       7     102     178       0       0       0     154    0.00     0.0     0.0    0.00    0.00   0.288   0.302   0.322   0.372   0.372   0.372   0.372   0.372   0.372   0.372
 1975 003    64     560     240       7     102     178       0       0       0     154    0.00     0.0     0.0    0.00    0.00   0.283   0.301   0.321   0.372   0.372   0.372   0.372   0.372   0.372   0.372
 1975 004    65     559     240       7     102     178       0       0       0     154    0.00     0.0     0.0    0.00    0.00   0.281   0.301   0.321   0.371   0.372   0.372   0.372   0.372   0.372   0.372
 1975 005    66     559     240       7     102     178       0       0       0     154    0.00     0.0     0.0    0.00    0.00   0.281   0.300   0.321   0.371   0.372   0.372   0.372   0.372   0.372   0.371
 1975 006    67     562     242       7     102     181       0       0       0     154    0.00     0.0     0.0    0.00    0.00   0.307   0.307   0.324   0.372   0.372   0.372   0.372   0.372   0.372   0.371
 1975 007    68     562     242       7     102     181       0       0       0     154    0.00     0.0     0.0    0.00    0.00   0.296   0.306   0.325   0.374   0.373   0.372   0.372   0.373   0.372   0.371
 1975 008    69     560     241       7     103     181       0       0       0     154    0.00     0.0     0.0    0.00    0.00   0.287   0.303   0.322   0.372   0.373   0.372   0.372   0.373   0.371   0.371
 1975 009    70     560     241       7     104     181       0       0       0     154    0.00     0.0     0.0    0.00    0.00   0.283   0.303   0.322   0.372   0.373   0.372   0.372   0.373   0.371   0.371
 1975 010    71     560     241       7     104     181       0       0       0     153    0.00     0.0     0.0    0.00    0.00   0.283   0.302   0.322   0.372   0.372   0.372   0.372   0.372   0.372   0.373
 1975 011    72     560     240       7     104     181       0       0       0     153    0.00     0.0     0.0    0.00    0.00   0.282   0.302   0.322   0.372   0.372   0.372   0.372   0.372   0.371   0.373
 1975 012    73     564     245       7     104     185       0       0       0     153    0.00     0.0     0.0    0.00    0.00   0.307   0.316   0.329   0.375   0.374   0.373   0.372   0.372   0.371   0.373
 1975 013    74     562     242       7     106     185       0       0       0     153    0.00     0.0     0.0    0.00    0.00   0.292   0.307   0.324   0.372   0.372   0.373   0.372   0.372   0.371   0.373
 1975 014    75     563     243       7     106     187       0       0       0     153    0.00     0.0     0.0    0.00    0.00   0.305   0.308   0.326   0.374   0.373   0.373   0.372   0.371   0.373   0.373
 1975 015    76     565     246       7     106     190       0       0       0     153    0.00     0.0     0.0    0.00    0.00   0.305   0.318   0.332   0.378   0.375   0.374   0.373   0.372   0.373   0.373
 1975 016    77     568     248       7     107     193       0       0       0     154    0.00     0.0     0.0    0.00    0.00   0.306   0.324   0.338   0.383   0.379   0.376   0.375   0.372   0.372   0.372
 1975 017    78     570     250       7     107     196       0       0       0     154    0.00     0.0     0.0    0.00    0.00   0.306   0.327   0.342   0.387   0.383   0.380   0.377   0.372   0.372   0.372
 1975 018    79     576     257       7     108     204       0       0       0     154    0.00     0.0     0.0    0.00    0.00   0.307   0.337   0.362   0.395   0.394   0.387   0.382   0.373   0.373   0.372
 1975 019    80     581     262       7     109     210       0       0       0     153    0.00     0.0     0.0    0.01    0.00   0.305   0.336   0.369   0.394   0.395   0.395   0.395   0.377   0.375   0.374
 1975 020    81     591     272       7     112     224       0       0       0     150    0.00     0.0     0.0    0.31    0.00   0.307   0.337   0.370   0.395   0.395   0.395   0.395   0.394   0.385   0.379
 1975 021    82     593     273       7     116     230       0       0       0     147    0.00     0.0     0.0    0.00    0.00   0.305   0.336   0.369   0.394   0.395   0.395   0.395   0.392   0.388   0.383
 1975 022    83     591     272       7     121     233       0       0       0     146    0.00     0.0     0.0    0.00    0.00   0.307   0.335   0.362   0.395   0.395   0.395   0.395   0.388   0.388   0.386
 1975 023    84     587     267       7     125     234       0       0       0     146    0.00     0.0     0.0    0.00    0.00   0.302   0.321   0.352   0.395   0.395   0.395   0.395   0.384   0.386   0.386
 1975 024    85     588     269       7     130     240       0       0       0     146    0.01     0.0     0.0    0.00    0.00   0.305   0.336   0.357   0.394   0.395   0.395   0.395   0.383   0.384   0.385
 1975 025    86     585     265       7     134     241       0       0       0     147    0.01     0.0     0.0    0.00    0.00   0.303   0.323   0.350   0.395   0.395   0.395   0.395   0.381   0.383   0.384
 1975 026    87     591     272       7     138     253       0       0       0     146    0.01     0.0     0.0    0.14    0.00   0.305   0.336   0.369   0.394   0.394   0.395   0.395   0.389   0.386   0.385
 1975 027    88     592     273       7     143     259       0       0       0     146    0.01     0.0     0.0    0.00    0.00   0.307   0.337   0.370   0.395   0.395   0.395   0.395   0.388   0.387   0.386
 1975 028    89     596     276       7     149     268       0       0       0     144    0.01     0.0     0.0    0.06    0.00   0.307   0.337   0.370   0.395   0.395   0.395   0.395   0.394   0.390   0.388
 1975 029    90     592     273       7     154     270       0       0       0     144    0.01     0.0     0.0    0.00    0.00   0.307   0.330   0.360   0.395   0.395   0.395   0.395   0.388   0.389   0.389
 1975 030    91     588     268       7     160     271       0       0       0     144    0.01     0.0     0.0    0.00    0.00   0.306   0.320   0.350   0.395   0.395   0.395   0.395   0.384   0.387   0.388
 1975 031    92     586     267       7     164     275       0       0       0     146    0.01     0.0     0.0    0.00    0.00   0.306   0.327   0.348   0.395   0.395   0.395   0.395   0.381   0.384   0.386
 1975 032    93     582     262       7     168     275       0       0       0     147    0.01     0.0     0.0    0.00    0.00   0.294   0.316   0.342   0.393   0.394   0.394   0.394   0.380   0.382   0.384
 1975 033    94     578     258       7     172     275       0       0       0     148    0.01     0.0     0.0    0.00    0.00   0.289   0.309   0.335   0.389   0.391   0.393   0.394   0.379   0.380   0.382
 1975 034    95     567     248       7     183     275       0       0       0     151    0.01     0.0     0.0    0.00    0.00   0.284   0.304   0.327   0.379   0.381   0.381   0.382   0.374   0.375   0.376
 1975 035    96     562     243       7     188     275       0       0       0     153    0.01     0.0     0.0    0.00    0.00   0.281   0.302   0.324   0.375   0.375   0.376   0.376   0.372   0.373   0.373
 1975 036    97     560     241       7     189     275       0       0       0     153    0.01     0.0     0.0    0.00    0.00   0.280   0.301   0.321   0.372   0.372   0.373   0.373   0.372   0.372   0.373
 1975 037    98     560     241       7     189     275       0       0       0     153    0.01     0.0     0.0    0.00    0.00   0.279   0.301   0.321   0.372   0.372   0.372   0.373   0.372   0.372   0.373
 1975 038    99     559     240       7     189     275       0       0       0     153    0.01     0.0     0.0    0.00    0.00   0.276   0.300   0.320   0.371   0.372   0.372   0.372   0.372   0.372   0.373
 1975 039   100     559     239       7     189     275       0       0       0     154    0.01     0.0     0.0    0.00    0.00   0.274   0.299   0.320   0.371   0.371   0.372   0.372   0.371   0.372   0.372
 1975 040   101     558     239       7     189     275       0       0       0     154    0.01     0.0     0.0    0.00    0.00   0.273   0.297   0.319   0.370   0.371   0.371   0.371   0.371   0.372   0.372
 1975 041   102     560     240       7     189     277       0       0       0     154    0.01     0.0     0.0    0.00    0.00   0.296   0.302   0.320   0.370   0.370   0.371   0.371   0.371   0.372   0.372
 1975 042   103     564     245       7     189     282       0       0       0     154    0.01     0.0     0.0    0.00    0.00   0.307   0.320   0.330   0.375   0.373   0.372   0.372   0.371   0.372   0.372
 1975 043   104     565     246       7     189     283       0       0       0     154    0.01     0.0     0.0    0.00    0.00   0.306   0.317   0.334   0.379   0.376   0.374   0.373   0.372   0.372   0.372
 1975 044   105     565     246       7     189     284       0       0       0     154    0.01     0.0     0.0    0.00    0.00   0.303   0.313   0.333   0.381   0.378   0.376   0.374   0.372   0.372   0.372
 1975 045   106     578     258       7     190     298       0       0       0     154    0.01     0.0     0.0    0.16    0.00   0.306   0.337   0.369   0.395   0.395   0.393   0.383   0.373   0.372   0.372
 1975 046   107     577     257       7     191     298       0       0       0     153    0.01     0.0     0.0    0.00    0.00   0.295   0.321   0.355   0.395   0.395   0.395   0.393   0.375   0.374   0.373
 1975 047   108     576     256       7     192     299       0       0       0     153    0.01     0.0     0.0    0.00    0.00   0.294   0.313   0.344   0.394   0.395   0.395   0.394   0.376   0.375   0.374
 1975 048   109     576     257       7     194     301       0       0       0     152    0.01     0.0     0.0    0.00    0.00   0.307   0.314   0.339   0.392   0.393   0.394   0.394   0.377   0.376   0.375
 1975 049   110     582     262       7     195     309       0       0       0     151    0.01     0.0     0.0    0.00    0.00   0.306   0.337   0.356   0.395   0.395   0.395   0.395   0.378   0.377   0.376
 1975 050   111     579     259       7     198     309       0       0       0     151    0.01     0.0     0.0    0.00    0.00   0.292   0.320   0.347   0.394   0.394   0.394   0.394   0.378   0.378   0.377
 1975 051   112     567     247       7     208     309       0       0       0     153    0.01     0.0     0.0    0.00    0.00   0.282   0.308   0.332   0.381   0.381   0.382   0.382   0.374   0.374   0.373
 1975 052   113     561     241       7     213     309       0       0       0     154    0.01     0.0     0.0    0.00    0.00   0.278   0.302   0.325   0.375   0.375   0.375   0.375   0.372   0.371   0.371
 1975 053   114     560     240       7     213     309       0       0       0     153    0.01     0.0     0.0    0.00    0.00   0.276   0.300   0.321   0.373   0.373   0.374   0.374   0.371   0.371   0.373
 1975 054   115     559     239       7     213     309       0       0       0     154    0.01     0.0     0.0    0.00    0.00   0.274   0.299   0.320   0.372   0.371   0.372   0.373   0.372   0.371   0.372
 1975 055   116     558     238       7     213     309       0       0       0     154    0.01     0.0     0.0    0.00    0.00   0.271   0.296   0.319   0.370   0.370   0.371   0.371   0.372   0.371   0.372
 1975 056   117     557     238       7     213     309       0       0       0     154    0.01     0.0     0.0    0.00    0.00   0.270   0.296   0.318   0.370   0.370   0.371   0.371   0.372   0.371   0.372
 1975 057   118     556     237       7     213     309       0       0       0     154    0.01     0.0     0.0    0.00    0.00   0.268   0.294   0.317   0.369   0.369   0.370   0.370   0.372   0.370   0.372
 1975 058   119     555     235       7     213     309       0       0       0     154    0.01     0.0     0.0    0.00    0.00   0.262   0.291   0.315   0.367   0.367   0.369   0.369   0.371   0.370   0.371
 1975 059   120     553     234       7     213     309       0       0       0     154    0.01     0.0     0.0    0.00    0.00   0.257   0.288   0.313   0.366   0.366   0.369   0.368   0.370   0.369   0.371
 1975 060   121     552     233       7     213     309       0       0       0     155    0.01     0.0     0.0    0.00    0.00   0.254   0.287   0.312   0.365   0.366   0.368   0.368   0.370   0.369   0.371
 1975 061   122     555     236       7     213     313       0       0       0     155    0.01     0.0     0.0    0.00    0.00   0.303   0.296   0.312   0.365   0.365   0.368   0.368   0.370   0.369   0.371
 1975 062   123     555     235       7     213     313       0       0       0     155    0.01     0.0     0.0    0.00    0.00   0.292   0.301   0.311   0.364   0.365   0.367   0.367   0.370   0.369   0.370
 1975 063   124     561     241       7     213     320       0       0       0     155    0.01     0.0     0.0    0.00    0.00   0.304   0.329   0.330   0.372   0.366   0.367   0.367   0.369   0.368   0.370
 1975 064   125     560     241       7     213     320       0       0       0     155    0.01     0.0     0.0    0.00    0.00   0.293   0.317   0.333   0.377   0.372   0.368   0.366   0.369   0.368   0.370
 1975 065   126     565     246       7     213     325       0       0       0     155    0.01     0.0     0.0    0.00    0.00   0.306   0.330   0.342   0.384   0.378   0.373   0.369   0.369   0.368   0.370
 1975 066   127     572     253       7     213     333       0       0       0     155    0.01     0.0     0.0    0.00    0.00   0.305   0.336   0.365   0.394   0.391   0.382   0.375   0.371   0.368   0.370
 1975 067   128     584     264       8     214     346       0       0       0     153    0.01     0.0     0.0    0.27    0.00   0.305   0.337   0.369   0.394   0.395   0.395   0.395   0.385   0.376   0.373
 1975 068   129     583     263       8     216     348       0       0       0     151    0.01     0.0     0.0    0.00    0.00   0.306   0.323   0.356   0.395   0.395   0.395   0.395   0.383   0.380   0.376
 1975 069   130     580     261       8     219     348       0       0       0     150    0.01     0.0     0.0    0.00    0.00   0.294   0.314   0.345   0.395   0.395   0.395   0.395   0.381   0.380   0.378
 1975 070   131     584     265       8     221     355       0       0       0     149    0.02     0.0     0.0    0.00    0.00   0.306   0.337   0.355   0.395   0.395   0.395   0.395   0.381   0.380   0.379
 1975 071   132     585     266       8     224     359       0       0       0     149    0.02     0.0     0.0    0.00    0.00   0.307   0.337   0.357   0.395   0.395   0.395   0.395   0.381   0.381   0.380
 1975 072   133     589     269       8     228     366       0       0       0     148    0.02     0.0     0.0    0.00    0.00   0.307   0.337   0.370   0.395   0.395   0.395   0.395   0.385   0.383   0.381
 1975 073   134     586     266       8     232     367       0       0       0     148    0.02     0.0     0.0    0.00    0.00   0.304   0.323   0.356   0.395   0.395   0.395   0.395   0.383   0.383   0.382
 1975 074   135     583     263       8     235     369       0       0       0     148    0.02     0.0     0.0    0.00    0.00   0.306   0.317   0.346   0.395   0.395   0.395   0.395   0.381   0.382   0.382
 1975 075   136     578     259       8     239     369       0       0       0     148    0.02     0.0     0.0    0.00    0.00   0.292   0.310   0.338   0.391   0.392   0.393   0.394   0.379   0.380   0.381
 1975 076   137     566     247       8     249     369       0       0       0     152    0.02     0.0     0.0    0.00    0.00   0.281   0.302   0.327   0.379   0.380   0.381   0.381   0.374   0.375   0.375
 1975 077   138     564     244       8     251     370       0       0       0     152    0.02     0.0     0.0    0.00    0.00   0.283   0.300   0.323   0.375   0.377   0.378   0.379   0.373   0.374   0.374
 1975 078   139     563     243       8     252     370       0       0       0     153    0.02     0.0     0.0    0.00    0.00   0.283   0.301   0.321   0.373   0.375   0.377   0.378   0.373   0.373   0.374
 1975 079   140     562     242       8     253     370       0       0       0     153    0.02     0.0     0.0    0.00    0.00   0.284   0.303   0.321   0.372   0.373   0.375   0.376   0.372   0.373   0.373
 1975 080   141     570     250       8     254     380       0       0       0     153    0.02     0.0     0.0    0.00    0.00   0.306   0.337   0.345   0.383   0.378   0.376   0.376   0.372   0.372   0.373
 1975 081   142     569     250       8     255     380       0       0       0     154    0.02     0.0     0.0    0.00    0.00   0.300   0.321   0.343   0.388   0.382   0.379   0.377   0.372   0.372   0.372
 1975 082   143     567     248       8     256     381       0       0       0     154    0.02     0.0     0.0    0.00    0.00   0.288   0.311   0.336   0.387   0.384   0.381   0.379   0.372   0.372   0.372
 1975 083   144     562     242       8     260     381       0       0       0     154    0.02     0.0     0.0    0.00    0.00   0.279   0.303   0.327   0.377   0.376   0.375   0.374   0.372   0.372   0.372
 1975 084   145     559     239       8     261     381       0       0       0     154    0.02     0.0     0.0    0.00    0.00   0.273   0.299   0.321   0.372   0.372   0.371   0.371   0.371   0.371   0.372
 1975 085   146     563     244       8     261     386       0       0       0     154    0.02     0.0     0.0    0.00    0.00   0.306   0.317   0.329   0.375   0.373   0.372   0.371   0.372   0.371   0.371
 1975 086   147     570     250       8     261     393       0       0       0     154    0.02     0.0     0.0    0.00    0.00   0.305   0.336   0.347   0.386   0.379   0.376   0.373   0.373   0.371   0.371
 1975 087   148     567     248       8     262     393       0       0       0     154    0.02     0.0     0.0    0.00    0.00   0.289   0.318   0.342   0.388   0.383   0.379   0.376   0.372   0.371   0.371
 1975 088   149     567     248       8     262     395       0       0       0     153    0.02     0.0     0.0    0.00    0.00   0.296   0.311   0.336   0.386   0.384   0.381   0.378   0.372   0.371   0.373
 1975 089   150     568     248       8     262     397       0       0       0     154    0.02     0.0     0.0    0.00    0.00   0.303   0.312   0.334   0.384   0.384   0.382   0.380   0.372   0.372   0.372
 1975 090   151     566     246       8     263     398       0       0       0     154    0.02     0.0     0.0    0.00    0.00   0.293   0.307   0.330   0.382   0.382   0.382   0.380   0.372   0.372   0.372
 1975 091   152     567     248       8     264     401       0       0       0     154    0.02     0.0     0.0    0.00    0.00   0.302   0.316   0.332   0.381   0.381   0.381   0.380   0.373   0.372   0.372
 1975 092   153     567     247       8     264     403       0       0       0     154    0.02     0.0     0.0    0.00    0.00   0.303   0.312   0.332   0.381   0.381   0.381   0.380   0.373   0.372   0.372
 1975 093   154     570     251       8     265     408       0       0       0     154    0.02     0.0     0.0    0.00    0.00   0.303   0.330   0.340   0.385   0.383   0.381   0.380   0.373   0.372   0.372
 1975 094   155     569     249       8     266     409       0       0       0     154    0.02     0.0     0.0    0.00    0.00   0.293   0.316   0.338   0.386   0.384   0.382   0.381   0.373   0.373   0.372
 1975 095   156     572     252       8     267     414       0       0       0     154    0.02     0.0     0.0    0.00    0.00   0.304   0.328   0.342   0.389   0.386   0.384   0.382   0.373   0.373   0.372
 1975 096   157     569     250       8     267     414       0       0       0     153    0.02     0.0     0.0    0.00    0.00   0.288   0.314   0.338   0.388   0.386   0.385   0.383   0.373   0.373   0.373
 1975 097   158     570     250       8     268     416       0       0       0     153    0.02     0.0     0.0    0.00    0.00   0.303   0.313   0.335   0.386   0.385   0.385   0.383   0.374   0.373   0.373
 1975 098   159     571     252       8     269     421       0       0       0     153    0.02     0.0     0.0    0.00    0.00   0.300   0.326   0.340   0.387   0.385   0.385   0.383   0.373   0.373   0.373
 1975 099   160     569     249       8     270     422       0       0       0     153    0.02     0.0     0.0    0.00    0.00   0.287   0.313   0.336   0.386   0.385   0.384   0.383   0.373   0.373   0.373
 1975 100   161     568     249       8     271     424       0       0       0     153    0.02     0.0     0.0    0.00    0.00   0.300   0.309   0.331   0.383   0.383   0.383   0.383   0.373   0.373   0.373
 1975 101   162     566     247       8     272     424       0       0       0     153    0.02     0.0     0.0    0.00    0.00   0.289   0.305   0.328   0.380   0.381   0.382   0.382   0.373   0.373   0.373
 1975 102   163     560     240       8     276     424       0       0       0     153    0.02     0.0     0.0    0.00    0.00   0.277   0.299   0.321   0.373   0.374   0.375   0.375   0.371   0.371   0.373
 1975 103   164     559     240       8     276     425       0       0       0     154    0.02     0.0     0.0    0.00    0.00   0.286   0.299   0.319   0.370   0.371   0.373   0.373   0.372   0.371   0.372
 1975 104   165     563     244       8     276     430       0       0       0     154    0.02     0.0     0.0    0.00    0.00   0.304   0.317   0.328   0.374   0.372   0.372   0.372   0.372   0.370   0.372
 1975 105   166     564     245       8     276     432       0       0       0     154    0.02     0.0     0.0    0.00    0.00   0.304   0.317   0.332   0.378   0.374   0.373   0.372   0.371   0.372   0.372
 1975 106   167     565     246       8     276     436       0       0       0     154    0.02     0.0     0.0    0.00    0.00   0.299   0.320   0.335   0.380   0.377   0.374   0.373   0.372   0.371   0.371
 1975 107   168     565     246       8     276     436       0       0       0     154    0.02     0.0     0.0    0.00    0.00   0.295   0.312   0.333   0.382   0.379   0.376   0.374   0.371   0.373   0.371
 1975 108   169     573     253       8     277     447       0       0       0     154    0.02     0.0     0.0    0.00    0.00   0.299   0.333   0.363   0.392   0.388   0.382   0.377   0.371   0.372   0.371
 1975 109   170     564     244       8     284     447       0       0       0     154    0.02     0.0     0.0    0.00    0.00   0.283   0.313   0.339   0.379   0.377   0.375   0.372   0.371   0.372   0.371
 1975 110   171     558     239       8     287     447       0       0       0     155    0.02     0.0     0.0    0.00    0.00   0.274   0.302   0.326   0.372   0.371   0.370   0.371   0.370   0.371   0.371
 1975 111   172     556     236       8     287     447       0       0       0     155    0.02     0.0     0.0    0.00    0.00   0.267   0.298   0.320   0.370   0.369   0.369   0.369   0.369   0.370   0.370
 1975 112   173     552     233       8     287     447       0       0       0     155    0.02     0.0     0.0    0.00    0.00   0.256   0.292   0.316   0.366   0.366   0.367   0.367   0.368   0.370   0.370
 1975 113   174     550     231       8     287     447       0       0       0     155    0.02     0.0     0.0    0.00    0.00   0.234   0.289   0.314   0.365   0.365   0.366   0.366   0.368   0.370   0.370
 1975 114   175     547     228       8     287     447       0       0       0     155    0.02     0.0     0.0    0.00    0.00   0.212   0.284   0.311   0.362   0.363   0.364   0.365   0.367   0.370   0.370
 1975 115   176     547     227       8     287     448       0       0       0     155    0.03     0.0     0.0    0.00    0.00   0.214   0.281   0.309   0.361   0.362   0.363   0.364   0.367   0.370   0.370
 1975 116   177     545     225       8     287     448       0       0       0     155    0.03     0.0     0.0    0.00    0.00   0.195   0.278   0.307   0.360   0.360   0.362   0.363   0.367   0.370   0.370
 1975 117   178     544     225       8     287     448       0       0       0     155    0.03     0.0     0.0    0.00    0.00   0.191   0.277   0.306   0.359   0.360   0.362   0.363   0.367   0.370   0.370
 1975 118   179     542     222       8     287     448       0       0       0     155    0.03     0.0     0.0    0.00    0.00   0.174   0.273   0.304   0.358   0.358   0.361   0.362   0.366   0.370   0.369
 1975 119   180     540     221       8     287     449       0       0       0     155    0.03     0.0     0.0    0.00    0.00   0.168   0.270   0.302   0.356   0.357   0.360   0.361   0.366   0.370   0.369
 1975 120   181     540     220       8     287     450       0       0       0     155    0.03     0.0     0.0    0.00    0.00   0.179   0.266   0.299   0.354   0.355   0.359   0.360   0.365   0.370   0.369
 1975 121   182     538     218       8     287     450       0       0       0     155    0.03     0.0     0.0    0.00    0.00   0.166   0.263   0.297   0.353   0.354   0.358   0.359   0.365   0.369   0.369
 1975 122   183     541     221       8     287     455       0       0       0     155    0.04     0.0     0.0    0.00    0.00   0.244   0.260   0.295   0.351   0.352   0.357   0.358   0.365   0.369   0.369
 1975 123   184     538     218       8     287     455       0       0       0     155    0.04     0.0     0.0    0.00    0.00   0.222   0.255   0.292   0.349   0.351   0.356   0.357   0.364   0.369   0.369
 1975 124   185     535     216       8     287     455       0       0       0     155    0.04     0.0     0.0    0.00    0.00   0.201   0.251   0.289   0.347   0.348   0.354   0.355   0.364   0.369   0.369
 1975 125   186     533     213       8     287     455       0       0       0     155    0.04     0.0     0.0    0.00    0.00   0.183   0.247   0.286   0.345   0.346   0.353   0.354   0.363   0.369   0.369
 1975 126   187     530     211       8     287     455       0       0       0     155    0.04     0.0     0.0    0.00    0.00   0.166   0.243   0.283   0.343   0.344   0.351   0.353   0.363   0.369   0.369
 1975 127   188     542     222       8     287     468       0       0       0     155    0.05     0.0     0.0    0.00    0.00   0.293   0.296   0.282   0.341   0.343   0.351   0.352   0.363   0.369   0.369
 1975 128   189     538     219       8     287     468       0       0       0     155    0.05     0.0     0.0    0.00    0.00   0.276   0.294   0.277   0.338   0.340   0.348   0.350   0.362   0.368   0.369
 1975 129   190     535     216       8     287     468       0       0       0     155    0.05     0.0     0.0    0.00    0.00   0.251   0.289   0.274   0.336   0.338   0.347   0.348   0.361   0.368   0.369
 1975 130   191     533     213       8     287     468       0       0       0     155    0.05     0.0     0.0    0.00    0.00   0.233   0.285   0.271   0.333   0.336   0.345   0.347   0.360   0.368   0.369
 1975 131   192     531     211       8     287     468       0       0       0     155    0.05     0.0     0.0    0.00    0.00   0.216   0.282   0.269   0.332   0.334   0.344   0.346   0.360   0.368   0.369
 1975 132   193     535     215       8     287     473       0       0       0     155    0.06     0.0     0.0    0.00    0.00   0.290   0.289   0.268   0.331   0.333   0.344   0.345   0.360   0.368   0.369
 1975 133   194     533     214       8     287     474       0       0       0     155    0.06     0.0     0.0    0.00    0.00   0.290   0.292   0.265   0.329   0.331   0.342   0.344   0.359   0.368   0.369
 1975 134   195     532     212       8     287     474       0       0       0     155    0.06     0.0     0.0    0.00    0.00   0.279   0.291   0.262   0.327   0.330   0.341   0.342   0.358   0.367   0.368
 1975 135   196     531     211       8     287     474       0       0       0     155    0.06     0.0     0.0    0.00    0.00   0.279   0.290   0.261   0.326   0.329   0.340   0.342   0.358   0.367   0.368
 1975 136   197     552     233       8     287     497       0       0       0     155    0.07     0.0     0.0    0.16    0.00   0.306   0.337   0.369   0.373   0.331   0.340   0.341   0.358   0.367   0.368
 1975 137   198     567     248       8     287     512       0       0       0     155    0.07     0.0     0.0    0.09    0.00   0.307   0.337   0.370   0.395   0.395   0.386   0.358   0.358   0.367   0.368
 1975 138   199     566     247       8     287     512       0       0       0     155    0.07     0.0     0.0    0.00    0.00   0.293   0.320   0.354   0.394   0.394   0.394   0.376   0.360   0.367   0.368
 1975 139   200     559     240       8     289     512       0       0       0     155    0.07     0.0     0.0    0.00    0.00   0.272   0.302   0.331   0.377   0.377   0.379   0.370   0.368   0.369   0.369
 1975 140   201     554     235       8     290     512       0       0       0     155    0.07     0.0     0.0    0.00    0.00   0.260   0.294   0.319   0.369   0.369   0.371   0.367   0.368   0.369   0.369
 1975 141   202     550     230       8     290     512       0       0       0     155    0.06     0.0     0.0    0.00    0.00   0.248   0.287   0.313   0.364   0.365   0.368   0.364   0.367   0.368   0.369
 1975 142   203     548     229       8     290     512       0       0       0     155    0.06     0.0     0.0    0.00    0.00   0.236   0.285   0.312   0.363   0.364   0.367   0.363   0.367   0.368   0.369
 1975 143   204     546     226       8     290     512       0       0       0     155    0.06     0.0     0.0    0.00    0.00   0.214   0.280   0.309   0.361   0.362   0.366   0.362   0.366   0.368   0.369
 1975 144   205     548     228       8     290     515       0       0       0     155    0.08     0.0     0.0    0.00    0.00   0.268   0.278   0.308   0.360   0.361   0.365   0.361   0.366   0.368   0.369
 1975 145   206     546     226       8     290     516       0       0       0     155    0.08     0.0     0.0    0.00    0.00   0.259   0.275   0.305   0.358   0.359   0.364   0.360   0.366   0.368   0.369
 1975 146   207     542     223       8     290     516       0       0       0     155    0.08     0.0     0.0    0.00    0.00   0.234   0.269   0.301   0.355   0.357   0.362   0.358   0.365   0.368   0.369
 1975 147   208     539     220       8     290     516       0       0       0     155    0.07     0.0     0.0    0.00    0.00   0.212   0.264   0.297   0.352   0.354   0.360   0.356   0.364   0.368   0.369
 1975 148   209     536     217       8     290     516       0       0       0     155    0.07     0.0     0.0    0.00    0.00   0.191   0.259   0.294   0.350   0.351   0.358   0.355   0.363   0.367   0.369
 1975 149   210     535     216       8     290     516       0       0       0     155    0.08     0.0     0.0    0.00    0.00   0.185   0.257   0.292   0.348   0.350   0.357   0.354   0.363   0.367   0.369
 1975 150   211     533     213       8     290     516       0       0       0     155    0.08     0.0     0.0    0.00    0.00   0.168   0.254   0.290   0.347   0.349   0.356   0.353   0.363   0.367   0.369
 1975 151   212     530     211       8     290     516       0       0       0     155    0.07     0.0     0.0    0.00    0.00   0.152   0.249   0.287   0.344   0.346   0.355   0.351   0.362   0.367   0.369
 1975 152   213     528     209       8     290     516       0       0       0     155    0.08     0.0     0.0    0.00    0.00   0.144   0.245   0.284   0.342   0.344   0.353   0.350   0.362   0.367   0.369
 1975 153   214     531     212       8     290     522       0       0       0     155    0.10     0.0     0.0    0.00    0.00   0.244   0.241   0.280   0.340   0.342   0.352   0.348   0.361   0.367   0.369
 1975 154   215     528     209       8     290     522       0       0       0     155    0.09     0.0     0.0    0.00    0.00   0.220   0.236   0.277   0.337   0.339   0.350   0.346   0.360   0.367   0.369
 1975 155   216     527     208       8     290     524       0       0       0     155    0.10     0.0     0.0    0.00    0.00   0.233   0.232   0.274   0.335   0.338   0.349   0.345   0.360   0.366   0.369
 1975 156   217     525     205       8     290     524       0       0       0     155    0.09     0.0     0.0    0.00    0.00   0.211   0.228   0.271   0.333   0.335   0.347   0.344   0.359   0.366   0.369
 1975 157   218     520     201       8     290     524       0       0       0     155    0.08     0.0     0.0    0.00    0.00   0.188   0.221   0.265   0.329   0.331   0.344   0.341   0.358   0.366   0.369
 1975 158   219     516     197       8     290     524       0       0       0     155    0.08     0.0     0.0    0.00    0.00   0.168   0.214   0.260   0.324   0.327   0.341   0.338   0.357   0.366   0.369
 1975 159   220     512     193       8     290     524       0       0       0     155    0.07     0.0     0.0    0.00    0.00   0.149   0.208   0.254   0.320   0.323   0.338   0.335   0.356   0.365   0.369
 1975 160   221     509     189       8     290     524       0       0       0     155    0.07     0.0     0.0    0.00    0.00   0.137   0.201   0.249   0.316   0.319   0.336   0.332   0.355   0.365   0.368
 1975 161   222     505     186       8     290     524       0       0       0     155    0.06     0.0     0.0    0.00    0.00   0.127   0.194   0.243   0.312   0.315   0.333   0.330   0.354   0.365   0.368
 1975 162   223     502     182       8     290     524       0       0       0     155    0.06     0.0     0.0    0.00    0.00   0.118   0.187   0.237   0.307   0.311   0.330   0.327   0.353   0.364   0.368
 1975 163   224     498     178       8     290     524       0       0       0     155    0.05     0.0     0.0    0.00    0.00   0.110   0.181   0.231   0.303   0.306   0.327   0.324   0.352   0.364   0.368
 1975 164   225     495     175       8     290     524       0       0       0     155    0.05     0.0     0.0    0.00    0.00   0.103   0.176   0.225   0.298   0.302   0.323   0.321   0.351   0.364   0.368
 1975 165   226     492     173       8     290     524       0       0       0     155    0.05     0.0     0.0    0.00    0.00   0.097   0.174   0.222   0.295   0.299   0.322   0.319   0.350   0.363   0.368
 1975 166   227     491     171       8     290     524       0       0       0     155    0.07     0.0     0.0    0.00    0.00   0.096   0.172   0.218   0.293   0.296   0.320   0.317   0.349   0.363   0.368
 1975 167   228     494     174       8     290     529       0       0       0     155    0.10     0.0     0.0    0.00    0.00   0.191   0.171   0.214   0.291   0.294   0.318   0.315   0.349   0.363   0.368
 1975 168   229     493     174       8     290     531       0       0       0     155    0.10     0.0     0.0    0.00    0.00   0.213   0.169   0.210   0.289   0.292   0.316   0.313   0.348   0.363   0.368
 1975 169   230     490     170       8     290     531       0       0       0     155    0.09     0.0     0.0    0.00    0.00   0.191   0.167   0.206   0.287   0.289   0.313   0.310   0.347   0.362   0.368
 1975 170   231     487     168       8     290     531       0       0       0     155    0.08     0.0     0.0    0.00    0.00   0.171   0.165   0.203   0.285   0.287   0.310   0.308   0.346   0.362   0.368
 1975 171   232     484     164       8     290     531       0       0       0     155    0.08     0.0     0.0    0.00    0.00   0.151   0.164   0.199   0.283   0.285   0.307   0.304   0.345   0.362   0.368
 1975 172   233     481     161       8     290     531       0       0       0     155    0.07     0.0     0.0    0.00    0.00   0.138   0.162   0.196   0.281   0.282   0.303   0.300   0.343   0.361   0.368
 1975 173   234     478     158       8     290     531       0       0       0     155    0.07     0.0     0.0    0.00    0.00   0.127   0.160   0.194   0.278   0.280   0.298   0.296   0.341   0.360   0.367
 1975 174   235     484     164       8     290     540       0       0       0     155    0.10     0.0     0.0    0.00    0.00   0.269   0.161   0.192   0.277   0.279   0.296   0.294   0.341   0.360   0.367
 1975 175   236     480     160       8     290     540       0       0       0     155    0.09     0.0     0.0    0.00    0.00   0.236   0.159   0.190   0.275   0.277   0.292   0.290   0.339   0.360   0.367
 1975 176   237     476     156       8     290     540       0       0       0     155    0.08     0.0     0.0    0.00    0.00   0.205   0.158   0.188   0.273   0.275   0.288   0.287   0.337   0.359   0.367
 1975 177   238     473     153       8     290     540       0       0       0     155    0.08     0.0     0.0    0.00    0.00   0.178   0.156   0.186   0.272   0.273   0.286   0.285   0.335   0.358   0.367
 1975 178   239     470     151       8     290     540       0       0       0     155    0.07     0.0     0.0    0.00    0.00   0.156   0.155   0.185   0.271   0.272   0.284   0.283   0.333   0.358   0.367
 1975 179   240     468     149       8     290     540       0       0       0     155    0.07     0.0     0.0    0.00    0.00   0.142   0.154   0.184   0.270   0.271   0.283   0.282   0.332   0.357   0.367
 1975 180   241     466     146       8     290     540       0       0       0     155    0.06     0.0     0.0    0.00    0.00   0.130   0.153   0.183   0.269   0.270   0.281   0.280   0.330   0.357   0.366
 1975 181   242     463     144       8     290     540       0       0       0     155    0.06     0.0     0.0    0.00    0.00   0.121   0.151   0.182   0.267   0.268   0.279   0.278   0.328   0.356   0.366
 1975 182   243     460     141       8     290     540       0       0       0     155    0.05     0.0     0.0    0.00    0.00   0.112   0.150   0.180   0.265   0.266   0.276   0.276   0.324   0.354   0.366
 1975 183   244     457     138       8     290     540       0       0       0     155    0.05     0.0     0.0    0.00    0.00   0.105   0.149   0.179   0.263   0.265   0.274   0.274   0.321   0.353   0.365
 1975 184   245     455     136       8     290     540       0       0       0     155    0.05     0.0     0.0    0.00    0.00   0.098   0.147   0.177   0.262   0.263   0.273   0.272   0.318   0.352   0.365
 1975 185   246     453     134       8     290     540       0       0       0     155    0.04     0.0     0.0    0.00    0.00   0.092   0.146   0.177   0.261   0.263   0.272   0.272   0.316   0.352   0.365
 1975 186   247     452     132       8     290     540       0       0       0     155    0.04     0.0     0.0    0.00    0.00   0.087   0.146   0.176   0.261   0.262   0.271   0.271   0.314   0.351   0.365
 1975 187   248     449     130       8     290     540       0       0       0     155    0.04     0.0     0.0    0.00    0.00   0.082   0.144   0.175   0.259   0.260   0.269   0.269   0.310   0.350   0.364
 1975 188   249     450     130       8     290     542       0       0       0     155    0.10     0.0     0.0    0.00    0.00   0.130   0.143   0.174   0.258   0.259   0.268   0.268   0.307   0.349   0.364
 1975 189   250     447     128       8     290     542       0       0       0     155    0.09     0.0     0.0    0.00    0.00   0.120   0.142   0.173   0.257   0.259   0.267   0.267   0.305   0.348   0.364
 1975 190   251     446     126       8     290     542       0       0       0     155    0.09     0.0     0.0    0.00    0.00   0.114   0.142   0.172   0.257   0.258   0.266   0.266   0.303   0.347   0.364
 1975 191   252     444     125       8     290     543       0       0       0     155    0.10     0.0     0.0    0.00    0.00   0.110   0.141   0.172   0.256   0.257   0.265   0.265   0.300   0.346   0.363
 1975 192   253     442     122       8     290     543       0       0       0     155    0.09     0.0     0.0    0.00    0.00   0.103   0.140   0.171   0.255   0.256   0.264   0.264   0.297   0.345   0.363
 1975 193   254     443     124       8     290     546       0       0       0     155    0.10     0.0     0.0    0.00    0.00   0.155   0.139   0.170   0.254   0.256   0.264   0.264   0.296   0.344   0.363
 1975 194   255     441     122       8     290     546       0       0       0     155    0.09     0.0     0.0    0.00    0.00   0.138   0.138   0.170   0.254   0.255   0.263   0.263   0.294   0.343   0.363
 1975 195   256     439     120       8     290     546       0       0       0     155    0.10     0.0     0.0    0.00    0.00   0.136   0.137   0.169   0.253   0.254   0.262   0.262   0.292   0.342   0.362
 1975 196   257     439     119       8     290     548       0       0       0     155    0.10     0.0     0.0    0.00    0.00   0.149   0.137   0.168   0.252   0.253   0.261   0.261   0.290   0.341   0.362
 1975 197   258     437     117       8     290     548       0       0       0     155    0.09     0.0     0.0    0.00    0.00   0.134   0.136   0.168   0.251   0.253   0.261   0.261   0.288   0.340   0.362
 1975 198   259     442     123       8     290     555       0       0       0     155    0.10     0.0     0.0    0.00    0.00   0.265   0.136   0.167   0.251   0.252   0.260   0.260   0.287   0.339   0.362
 1975 199   260     440     120       8     290     555       0       0       0     155    0.10     0.0     0.0    0.00    0.00   0.234   0.135   0.167   0.250   0.252   0.259   0.260   0.286   0.338   0.361
 1975 200   261     438     119       8     290     555       0       0       0     155    0.10     0.0     0.0    0.00    0.00   0.210   0.135   0.166   0.250   0.251   0.259   0.259   0.286   0.338   0.361
 1975 201   262     436     117       8     290     555       0       0       0     155    0.09     0.0     0.0    0.00    0.00   0.187   0.134   0.166   0.250   0.251   0.259   0.259   0.285   0.338   0.361
 1975 202   263     435     115       8     290     555       0       0       0     155    0.10     0.0     0.0    0.00    0.00   0.167   0.133   0.166   0.249   0.251   0.258   0.259   0.285   0.337   0.361
 1975 203   264     433     114       8     290     556       0       0       0     155    0.10     0.0     0.0    0.00    0.00   0.152   0.133   0.165   0.249   0.250   0.258   0.258   0.284   0.336   0.361
 1975 204   265     432     113       8     290     556       0       0       0     155    0.10     0.0     0.0    0.00    0.00   0.148   0.132   0.165   0.248   0.250   0.258   0.258   0.283   0.336   0.361
 1975 205   266     432     113       8     290     558       0       0       0     155    0.10     0.0     0.0    0.00    0.00   0.167   0.131   0.164   0.248   0.249   0.257   0.257   0.283   0.335   0.360
 1975 206   267     431     111       8     290     558       0       0       0     155    0.09     0.0     0.0    0.00    0.00   0.145   0.131   0.164   0.247   0.249   0.257   0.257   0.282   0.334   0.360
 1975 207   268     429     109       8     290     558       0       0       0     155    0.08     0.0     0.0    0.00    0.00   0.131   0.130   0.163   0.247   0.248   0.256   0.256   0.281   0.333   0.360
 1975 208   269     427     108       8     290     558       0       0       0     155    0.08     0.0     0.0    0.00    0.00   0.121   0.130   0.163   0.246   0.248   0.256   0.256   0.280   0.332   0.360
 1975 209   270     426     106       8     290     558       0       0       0     155    0.07     0.0     0.0    0.00    0.00   0.113   0.129   0.162   0.246   0.247   0.255   0.255   0.279   0.330   0.359
 1975 210   271     424     105       8     290     558       0       0       0     155    0.07     0.0     0.0    0.00    0.00   0.105   0.129   0.162   0.245   0.247   0.254   0.254   0.278   0.329   0.359
 1975 211   272     423     103       8     290     558       0       0       0     155    0.06     0.0     0.0    0.00    0.00   0.099   0.128   0.161   0.244   0.246   0.254   0.254   0.277   0.328   0.358
 1975 212   273     422     102       8     290     558       0       0       0     155    0.06     0.0     0.0    0.00    0.00   0.093   0.127   0.161   0.244   0.246   0.253   0.254   0.277   0.327   0.358
 1975 213   274     421     101       8     290     558       0       0       0     155    0.05     0.0     0.0    0.00    0.00   0.087   0.127   0.161   0.244   0.245   0.253   0.253   0.276   0.326   0.358
 1975 214   275     419     100       8     290     558       0       0       0     155    0.05     0.0     0.0    0.00    0.00   0.082   0.126   0.160   0.243   0.245   0.252   0.253   0.276   0.325   0.358

*DSSAT Cropping System Model Ver. 4.8.2.010 -develop  JUL 08, 2024 16:11:18

*RUN   2        : 30 KG N/HA                CSCER048 RORO7401    2
 MODEL          : CSCER048 - Wheat
 EXPERIMENT     : RORO7401 WH N RESPONSE,ROTHAMSTED  8FE(N)  (DSSAT3)
 DATA PATH      : C:\DSSAT48\Wheat\
 TREATMENT  2   : 30 KG N/HA                CSCER048
  
!                                                                                                                                   Soil water content (mm3/mm3) by soil depth (cm):
!                                                                                                                                   0-5    5-15   15-25   25-35   35-45   45-55   55-65   65-95  95-125 125-155
@YEAR DOY   DAS    SWTD    SWXD    ROFC    DRNC    PREC    IR#C    IRRC   LATFC    DTWT    MWTD    TDFD    TDFC    ROFD    ROSD    SW1D    SW2D    SW3D    SW4D    SW5D    SW6D    SW7D    SW8D    SW9D   SW10D
 1974 304     0     512     192       0       0       0       0       0       0     155    0.00     0.0     0.0    0.00    0.00   0.330   0.330   0.330   0.330   0.330   0.330   0.330   0.330   0.330   0.330
 1974 305     1     512     193       0       0       1       0       0       0     155    0.00     0.0     0.0    0.00    0.00   0.307   0.324   0.337   0.347   0.330   0.330   0.330   0.330   0.330   0.330
 1974 306     2     512     193       0       0       1       0       0       0     155    0.00     0.0     0.0    0.00    0.00   0.298   0.316   0.336   0.364   0.330   0.330   0.330   0.330   0.330   0.330
 1974 307     3     515     196       0       0       5       0       0       0     155    0.00     0.0     0.0    0.00    0.00   0.305   0.321   0.339   0.376   0.336   0.329   0.330   0.330   0.330   0.330
 1974 308     4     514     195       0       0       5       0       0       0     155    0.00     0.0     0.0    0.00    0.00   0.290   0.310   0.329   0.372   0.365   0.329   0.329   0.329   0.330   0.330
 1974 309     5     514     194       0       0       5       0       0       0     155    0.00     0.0     0.0    0.00    0.00   0.282   0.304   0.324   0.372   0.369   0.335   0.329   0.329   0.329   0.329
 1974 310     6     514     194       0       0       5       0       0       0     155    0.00     0.0     0.0    0.00    0.00   0.283   0.302   0.323   0.372   0.372   0.335   0.329   0.329   0.329   0.329
 1974 311     7     515     195       0       0       6       0       0       0     155    0.00     0.0     0.0    0.00    0.00   0.295   0.304   0.323   0.373   0.372   0.337   0.329   0.329   0.329   0.329
 1974 312     8     515     195       0       0       7       0       0       0     155    0.00     0.0     0.0    0.00    0.00   0.290   0.304   0.323   0.373   0.372   0.339   0.328   0.329   0.329   0.329
 1974 313     9     517     197       0       0       9       0       0       0     155    0.00     0.0     0.0    0.00    0.00   0.307   0.308   0.326   0.374   0.373   0.343   0.328   0.329   0.329   0.329
 1974 314    10     520     201       0       0      13       0       0       0     155    0.00     0.0     0.0    0.00    0.00   0.304   0.325   0.335   0.380   0.376   0.349   0.328   0.328   0.329   0.329
 1974 315    11     525     206       0       0      18       0       0       0     155    0.00     0.0     0.0    0.00    0.00   0.307   0.337   0.346   0.388   0.382   0.361   0.328   0.328   0.329   0.329
 1974 316    12     525     205       0       0      19       0       0       0     155    0.00     0.0     0.0    0.00    0.00   0.295   0.321   0.343   0.390   0.386   0.373   0.331   0.328   0.328   0.329
 1974 317    13     549     230       2       0      45       0       0       0     155    0.00     0.0     0.0    1.91    0.00   0.307   0.337   0.370   0.395   0.395   0.395   0.395   0.361   0.328   0.329
 1974 318    14     556     237       2       0      53       0       0       0     155    0.00     0.0     0.0    0.03    0.00   0.306   0.337   0.370   0.395   0.395   0.395   0.395   0.377   0.336   0.329
 1974 319    15     560     240       2       0      57       0       0       0     155    0.00     0.0     0.0    0.00    0.00   0.305   0.336   0.363   0.394   0.395   0.395   0.395   0.380   0.346   0.328
 1974 320    16     562     243       2       0      60       0       0       0     155    0.00     0.0     0.0    0.00    0.00   0.305   0.333   0.358   0.395   0.395   0.395   0.395   0.381   0.358   0.328
 1974 321    17     591     272       6       0      93       0       0       0     155    0.00     0.0     0.0    3.89    0.00   0.305   0.337   0.369   0.395   0.395   0.395   0.395   0.395   0.395   0.369
 1974 322    18     592     272       6       3      97       0       0       0     149    0.00     0.0     0.0    0.00    0.00   0.307   0.337   0.363   0.395   0.395   0.395   0.395   0.389   0.392   0.381
 1974 323    19     593     274       6       8     104       0       0       0     146    0.00     0.0     0.0    0.02    0.00   0.304   0.336   0.369   0.394   0.394   0.395   0.395   0.390   0.391   0.386
 1974 324    20     597     277       6      14     113       0       0       0     144    0.00     0.0     0.0    0.07    0.00   0.307   0.337   0.370   0.395   0.395   0.395   0.395   0.394   0.392   0.389
 1974 325    21     599     280       7      26     130       0       0       0     140    0.00     0.0     0.0    0.69    0.00   0.307   0.337   0.370   0.395   0.395   0.395   0.395   0.395   0.395   0.395
 1974 326    22     592     273       7      33     130       0       0       0     141    0.00     0.0     0.0    0.00    0.00   0.296   0.322   0.356   0.395   0.395   0.395   0.395   0.388   0.392   0.393
 1974 327    23     586     267       7      39     130       0       0       0     143    0.00     0.0     0.0    0.00    0.00   0.291   0.313   0.344   0.394   0.395   0.395   0.395   0.383   0.387   0.390
 1974 328    24     583     263       7      45     132       0       0       0     145    0.00     0.0     0.0    0.00    0.00   0.303   0.311   0.338   0.391   0.393   0.394   0.394   0.381   0.384   0.387
 1974 329    25     569     250       7      57     132       0       0       0     150    0.00     0.0     0.0    0.00    0.00   0.289   0.304   0.328   0.380   0.381   0.381   0.382   0.375   0.377   0.378
 1974 330    26     567     248       7      60     132       0       0       0     151    0.00     0.0     0.0    0.00    0.00   0.289   0.304   0.326   0.378   0.379   0.380   0.381   0.374   0.375   0.377
 1974 331    27     566     247       7      61     133       0       0       0     152    0.00     0.0     0.0    0.00    0.00   0.296   0.305   0.325   0.377   0.378   0.379   0.380   0.374   0.375   0.376
 1974 332    28     567     247       7      63     136       0       0       0     152    0.00     0.0     0.0    0.00    0.00   0.306   0.311   0.328   0.377   0.377   0.378   0.379   0.373   0.374   0.375
 1974 333    29     569     249       7      64     139       0       0       0     153    0.00     0.0     0.0    0.00    0.00   0.306   0.322   0.335   0.381   0.379   0.379   0.379   0.373   0.373   0.374
 1974 334    30     563     244       7      69     139       0       0       0     154    0.00     0.0     0.0    0.00    0.00   0.292   0.311   0.327   0.375   0.374   0.374   0.374   0.373   0.372   0.372
 1974 335    31     563     243       7      70     140       0       0       0     154    0.00     0.0     0.0    0.00    0.00   0.288   0.307   0.327   0.376   0.375   0.375   0.374   0.372   0.372   0.372
 1974 336    32     560     241       7      72     140       0       0       0     154    0.00     0.0     0.0    0.00    0.00   0.283   0.303   0.323   0.373   0.372   0.372   0.372   0.372   0.372   0.372
 1974 337    33     560     240       7      72     140       0       0       0     154    0.00     0.0     0.0    0.00    0.00   0.281   0.301   0.322   0.373   0.372   0.372   0.372   0.372   0.372   0.372
 1974 338    34     559     240       7      72     140       0       0       0     154    0.00     0.0     0.0    0.00    0.00   0.279   0.300   0.321   0.372   0.372   0.372   0.372   0.372   0.372   0.372
 1974 339    35     559     240       7      72     140       0       0       0     154    0.00     0.0     0.0    0.00    0.00   0.277   0.300   0.321   0.372   0.372   0.372   0.372   0.372   0.371   0.372
 1974 340    36     559     239       7      72     140       0       0       0     154    0.00     0.0     0.0    0.00    0.00   0.276   0.299   0.320   0.372   0.372   0.371   0.371   0.372   0.371   0.371
 1974 341    37     558     239       7      72     140       0       0       0     154    0.00     0.0     0.0    0.00    0.00   0.275   0.299   0.320   0.372   0.371   0.371   0.371   0.371   0.371   0.371
 1974 342    38     559     239       7      72     140       0       0       0     154    0.00     0.0     0.0    0.00    0.00   0.282   0.300   0.320   0.372   0.371   0.371   0.371   0.371   0.371   0.371
 1974 343    39     559     239       7      72     140       0       0       0     154    0.00     0.0     0.0    0.00    0.00   0.281   0.300   0.320   0.371   0.371   0.371   0.371   0.371   0.371   0.371
 1974 344    40     566     246       7      72     148       0       0       0     154    0.00     0.0     0.0    0.00    0.00   0.306   0.331   0.335   0.378   0.375   0.373   0.372   0.372   0.371   0.371
 1974 345    41     569     250       7      72     151       0       0       0     154    0.00     0.0     0.0    0.00    0.00   0.306   0.332   0.344   0.386   0.380   0.376   0.374   0.372   0.373   0.371
 1974 346    42     573     253       7      73     156       0       0       0     154    0.00     0.0     0.0    0.00    0.00   0.307   0.337   0.350   0.393   0.387   0.382   0.378   0.372   0.372   0.372
 1974 347    43     565     246       7      80     156       0       0       0     154    0.00     0.0     0.0    0.00    0.00   0.292   0.318   0.335   0.381   0.378   0.376   0.374   0.372   0.372   0.372
 1974 348    44     565     245       7      80     156       0       0       0     154    0.00     0.0     0.0    0.00    0.00   0.288   0.310   0.332   0.382   0.380   0.378   0.376   0.372   0.372   0.372
 1974 349    45     564     244       7      81     156       0       0       0     154    0.00     0.0     0.0    0.00    0.00   0.284   0.305   0.329   0.380   0.380   0.379   0.377   0.372   0.372   0.372
 1974 350    46     565     246       7      82     158       0       0       0     154    0.00     0.0     0.0    0.00    0.00   0.304   0.308   0.328   0.379   0.380   0.379   0.378   0.372   0.372   0.372
 1974 351    47     562     242       7      85     158       0       0       0     154    0.00     0.0     0.0    0.00    0.00   0.290   0.303   0.324   0.374   0.374   0.374   0.374   0.372   0.372   0.372
 1974 352    48     561     241       7      85     158       0       0       0     154    0.00     0.0     0.0    0.00    0.00   0.285   0.302   0.323   0.373   0.374   0.374   0.374   0.372   0.372   0.372
 1974 353    49     560     240       7      86     158       0       0       0     154    0.00     0.0     0.0    0.00    0.00   0.282   0.302   0.323   0.372   0.372   0.372   0.372   0.372   0.372   0.372
 1974 354    50     560     240       7      86     158       0       0       0     154    0.00     0.0     0.0    0.00    0.00   0.281   0.302   0.322   0.371   0.372   0.372   0.372   0.371   0.372   0.372
 1974 355    51     561     242       7      86     160       0       0       0     154    0.00     0.0     0.0    0.00    0.00   0.302   0.305   0.324   0.373   0.372   0.372   0.372   0.372   0.372   0.372
 1974 356    52     563     243       7      86     162       0       0       0     154    0.00     0.0     0.0    0.00    0.00   0.306   0.309   0.327   0.375   0.373   0.373   0.372   0.373   0.372   0.372
 1974 357    53     562     243       7      87     162       0       0       0     154    0.00     0.0     0.0    0.00    0.00   0.297   0.308   0.327   0.376   0.374   0.373   0.373   0.372   0.372   0.372
 1974 358    54     563     243       7      87     163       0       0       0     154    0.00     0.0     0.0    0.00    0.00   0.297   0.307   0.327   0.376   0.375   0.374   0.373   0.373   0.371   0.371
 1974 359    55     566     247       7      87     167       0       0       0     154    0.00     0.0     0.0    0.00    0.00   0.307   0.320   0.333   0.380   0.377   0.376   0.375   0.372   0.372   0.372
 1974 360    56     574     255       7      88     176       0       0       0     154    0.00     0.0     0.0    0.04    0.00   0.306   0.337   0.363   0.395   0.388   0.382   0.378   0.372   0.372   0.372
 1974 361    57     574     254       7      88     176       0       0       0     154    0.00     0.0     0.0    0.00    0.00   0.295   0.321   0.352   0.395   0.395   0.388   0.383   0.373   0.373   0.372
 1974 362    58     573     253       7      89     176       0       0       0     153    0.00     0.0     0.0    0.00    0.00   0.289   0.312   0.342   0.393   0.394   0.391   0.387   0.374   0.373   0.373
 1974 363    59     571     252       7      90     176       0       0       0     153    0.00     0.0     0.0    0.00    0.00   0.285   0.307   0.334   0.389   0.391   0.391   0.389   0.375   0.374   0.374
 1974 364    60     564     244       7      97     176       0       0       0     154    0.00     0.0     0.0    0.00    0.00   0.281   0.303   0.327   0.379   0.380   0.380   0.379   0.372   0.372   0.372
 1974 365    61     561     242       7     100     176       0       0       0     154    0.00     0.0     0.0    0.00    0.00   0.280   0.302   0.323   0.374   0.375   0.375   0.375   0.372   0.372   0.372
 1975 001    62     562     243       7     100     178       0       0       0     154    0.00     0.0     0.0    0.00    0.00   0.297   0.304   0.324   0.374   0.374   0.375   0.375   0.372   0.372   0.372
 1975 002    63     560     241       7     102     178       0       0       0     154    0.00     0.0     0.0    0.00    0.00   0.288   0.302   0.322   0.372   0.372   0.372   0.372   0.372   0.372   0.372
 1975 003    64     560     240       7     102     178       0       0       0     154    0.00     0.0     0.0    0.00    0.00   0.283   0.301   0.321   0.372   0.372   0.372   0.372   0.372   0.372   0.372
 1975 004    65     559     240       7     102     178       0       0       0     154    0.00     0.0     0.0    0.00    0.00   0.281   0.301   0.321   0.371   0.372   0.372   0.372   0.372   0.372   0.372
 1975 005    66     559     240       7     102     178       0       0       0     154    0.00     0.0     0.0    0.00    0.00   0.281   0.300   0.321   0.371   0.372   0.372   0.372   0.372   0.372   0.371
 1975 006    67     562     242       7     102     181       0       0       0     154    0.00     0.0     0.0    0.00    0.00   0.307   0.307   0.324   0.372   0.372   0.372   0.372   0.372   0.372   0.371
 1975 007    68     562     242       7     102     181       0       0       0     154    0.00     0.0     0.0    0.00    0.00   0.296   0.306   0.325   0.374   0.373   0.372   0.372   0.373   0.372   0.371
 1975 008    69     560     241       7     103     181       0       0       0     154    0.00     0.0     0.0    0.00    0.00   0.287   0.303   0.322   0.372   0.373   0.372   0.372   0.373   0.371   0.371
 1975 009    70     560     241       7     104     181       0       0       0     154    0.00     0.0     0.0    0.00    0.00   0.283   0.303   0.322   0.372   0.373   0.372   0.372   0.373   0.371   0.371
 1975 010    71     560     241       7     104     181       0       0       0     153    0.00     0.0     0.0    0.00    0.00   0.283   0.302   0.322   0.372   0.372   0.372   0.372   0.372   0.372   0.373
 1975 011    72     560     240       7     104     181       0       0       0     153    0.00     0.0     0.0    0.00    0.00   0.282   0.302   0.322   0.372   0.372   0.372   0.372   0.372   0.371   0.373
 1975 012    73     564     245       7     104     185       0       0       0     153    0.00     0.0     0.0    0.00    0.00   0.307   0.316   0.329   0.375   0.374   0.373   0.372   0.372   0.371   0.373
 1975 013    74     562     242       7     106     185       0       0       0     153    0.00     0.0     0.0    0.00    0.00   0.292   0.307   0.324   0.372   0.372   0.373   0.372   0.372   0.371   0.373
 1975 014    75     563     243       7     106     187       0       0       0     153    0.00     0.0     0.0    0.00    0.00   0.305   0.308   0.326   0.374   0.373   0.373   0.372   0.371   0.373   0.373
 1975 015    76     565     246       7     106     190       0       0       0     153    0.00     0.0     0.0    0.00    0.00   0.305   0.318   0.332   0.378   0.375   0.374   0.373   0.372   0.373   0.373
 1975 016    77     568     248       7     107     193       0       0       0     154    0.00     0.0     0.0    0.00    0.00   0.306   0.324   0.338   0.383   0.379   0.376   0.375   0.372   0.372   0.372
 1975 017    78     570     250       7     107     196       0       0       0     154    0.00     0.0     0.0    0.00    0.00   0.306   0.327   0.342   0.387   0.383   0.380   0.377   0.372   0.372   0.372
 1975 018    79     576     257       7     108     204       0       0       0     154    0.00     0.0     0.0    0.00    0.00   0.307   0.337   0.362   0.395   0.394   0.387   0.382   0.373   0.373   0.372
 1975 019    80     581     262       7     109     210       0       0       0     153    0.00     0.0     0.0    0.01    0.00   0.305   0.336   0.369   0.394   0.395   0.395   0.395   0.377   0.375   0.374
 1975 020    81     591     272       7     112     224       0       0       0     150    0.00     0.0     0.0    0.31    0.00   0.307   0.337   0.370   0.395   0.395   0.395   0.395   0.394   0.385   0.379
 1975 021    82     593     273       7     116     230       0       0       0     147    0.00     0.0     0.0    0.00    0.00   0.305   0.336   0.369   0.394   0.395   0.395   0.395   0.392   0.388   0.383
 1975 022    83     591     272       7     121     233       0       0       0     146    0.00     0.0     0.0    0.00    0.00   0.307   0.335   0.362   0.395   0.395   0.395   0.395   0.388   0.388   0.386
 1975 023    84     587     267       7     125     234       0       0       0     146    0.00     0.0     0.0    0.00    0.00   0.302   0.321   0.352   0.395   0.395   0.395   0.395   0.384   0.386   0.386
 1975 024    85     588     269       7     130     240       0       0       0     146    0.01     0.0     0.0    0.00    0.00   0.305   0.336   0.357   0.394   0.395   0.395   0.395   0.383   0.384   0.385
 1975 025    86     585     265       7     134     241       0       0       0     147    0.01     0.0     0.0    0.00    0.00   0.303   0.323   0.350   0.395   0.395   0.395   0.395   0.381   0.383   0.384
 1975 026    87     591     272       7     138     253       0       0       0     146    0.01     0.0     0.0    0.14    0.00   0.305   0.336   0.369   0.394   0.394   0.395   0.395   0.389   0.386   0.385
 1975 027    88     592     273       7     143     259       0       0       0     146    0.01     0.0     0.0    0.00    0.00   0.307   0.337   0.370   0.395   0.395   0.395   0.395   0.388   0.387   0.386
 1975 028    89     596     276       7     149     268       0       0       0     144    0.01     0.0     0.0    0.06    0.00   0.307   0.337   0.370   0.395   0.395   0.395   0.395   0.394   0.390   0.388
 1975 029    90     592     273       7     154     270       0       0       0     144    0.01     0.0     0.0    0.00    0.00   0.307   0.330   0.360   0.395   0.395   0.395   0.395   0.388   0.389   0.389
 1975 030    91     588     268       7     160     271       0       0       0     144    0.01     0.0     0.0    0.00    0.00   0.306   0.320   0.350   0.395   0.395   0.395   0.395   0.384   0.387   0.388
 1975 031    92     586     267       7     164     275       0       0       0     146    0.01     0.0     0.0    0.00    0.00   0.306   0.327   0.348   0.395   0.395   0.395   0.395   0.381   0.384   0.386
 1975 032    93     582     262       7     168     275       0       0       0     147    0.01     0.0     0.0    0.00    0.00   0.294   0.316   0.342   0.393   0.394   0.394   0.394   0.380   0.382   0.384
 1975 033    94     578     258       7     172     275       0       0       0     148    0.01     0.0     0.0    0.00    0.00   0.289   0.309   0.335   0.389   0.391   0.393   0.394   0.379   0.380   0.382
 1975 034    95     567     248       7     183     275       0       0       0     151    0.01     0.0     0.0    0.00    0.00   0.284   0.304   0.327   0.379   0.381   0.381   0.382   0.374   0.375   0.376
 1975 035    96     562     243       7     188     275       0       0       0     153    0.01     0.0     0.0    0.00    0.00   0.281   0.302   0.324   0.375   0.375   0.376   0.376   0.372   0.373   0.373
[...]
 1975 120   181     539     219       8     287     450       0       0       0     155    0.03     0.0     0.0    0.00    0.00   0.166   0.266   0.299   0.354   0.355   0.359   0.360   0.366   0.370   0.369
 1975 121   182     537     218       8     287     450       0       0       0     155    0.03     0.0     0.0    0.00    0.00   0.151   0.263   0.297   0.353   0.354   0.358   0.359   0.365   0.370   0.369
 1975 122   183     540     220       8     287     455       0       0       0     155    0.04     0.0     0.0    0.00    0.00   0.233   0.259   0.294   0.351   0.352   0.357   0.358   0.365   0.369   0.369
 1975 123   184     537     218       8     287     455       0       0       0     155    0.04     0.0     0.0    0.00    0.00   0.205   0.255   0.292   0.349   0.350   0.355   0.357   0.364   0.369   0.369
 1975 124   185     534     214       8     287     455       0       0       0     155    0.04     0.0     0.0    0.00    0.00   0.177   0.251   0.288   0.346   0.348   0.354   0.355   0.364   0.369   0.369
 1975 125   186     531     212       8     287     455       0       0       0     155    0.04     0.0     0.0    0.00    0.00   0.152   0.247   0.286   0.344   0.346   0.353   0.354   0.363   0.369   0.369
 1975 126   187     528     209       8     287     455       0       0       0     155    0.04     0.0     0.0    0.00    0.00   0.136   0.242   0.282   0.342   0.344   0.351   0.352   0.363   0.369   0.369
 1975 127   188     540     220       8     287     468       0       0       0     155    0.04     0.0     0.0    0.00    0.00   0.299   0.280   0.280   0.340   0.342   0.350   0.351   0.362   0.369   0.369
 1975 128   189     536     217       8     287     468       0       0       0     155    0.04     0.0     0.0    0.00    0.00   0.271   0.280   0.276   0.337   0.339   0.348   0.349   0.362   0.369   0.369
 1975 129   190     533     214       8     287     468       0       0       0     155    0.04     0.0     0.0    0.00    0.00   0.242   0.275   0.273   0.335   0.337   0.346   0.348   0.361   0.369   0.369
 1975 130   191     530     211       8     287     468       0       0       0     155    0.05     0.0     0.0    0.00    0.00   0.221   0.270   0.270   0.333   0.335   0.345   0.346   0.361   0.369   0.369
 1975 131   192     528     209       8     287     468       0       0       0     155    0.04     0.0     0.0    0.00    0.00   0.204   0.266   0.268   0.331   0.334   0.344   0.345   0.360   0.368   0.369
 1975 132   193     532     213       8     287     473       0       0       0     155    0.05     0.0     0.0    0.00    0.00   0.284   0.271   0.267   0.330   0.333   0.343   0.345   0.360   0.368   0.369
 1975 133   194     531     212       8     287     474       0       0       0     155    0.05     0.0     0.0    0.00    0.00   0.281   0.272   0.265   0.329   0.331   0.342   0.343   0.359   0.368   0.369
 1975 134   195     529     210       8     287     474       0       0       0     155    0.05     0.0     0.0    0.00    0.00   0.271   0.268   0.263   0.327   0.330   0.341   0.342   0.359   0.368   0.369
 1975 135   196     529     209       8     287     474       0       0       0     155    0.05     0.0     0.0    0.00    0.00   0.266   0.267   0.262   0.327   0.329   0.341   0.342   0.359   0.368   0.369
 1975 136   197     550     231       8     287     497       0       0       0     155    0.05     0.0     0.0    0.08    0.00   0.305   0.337   0.356   0.362   0.329   0.340   0.342   0.359   0.368   0.369
 1975 137   198     565     246       8     287     512       0       0       0     155    0.05     0.0     0.0    0.18    0.00   0.306   0.337   0.370   0.395   0.395   0.372   0.344   0.359   0.368   0.369
 1975 138   199     564     245       8     287     512       0       0       0     155    0.05     0.0     0.0    0.00    0.00   0.290   0.320   0.355   0.394   0.394   0.388   0.363   0.359   0.368   0.369
 1975 139   200     559     239       8     288     512       0       0       0     155    0.05     0.0     0.0    0.00    0.00   0.258   0.299   0.332   0.378   0.378   0.376   0.367   0.369   0.370   0.370
 1975 140   201     553     234       8     289     512       0       0       0     155    0.05     0.0     0.0    0.00    0.00   0.234   0.290   0.321   0.370   0.371   0.371   0.368   0.369   0.370   0.370
 1975 141   202     549     230       8     289     512       0       0       0     155    0.04     0.0     0.0    0.00    0.00   0.211   0.280   0.315   0.367   0.368   0.369   0.366   0.368   0.369   0.370
 1975 142   203     548     228       8     289     512       0       0       0     155    0.04     0.0     0.0    0.00    0.00   0.201   0.277   0.314   0.365   0.367   0.368   0.365   0.368   0.369   0.370
 1975 143   204     545     225       8     289     512       0       0       0     155    0.04     0.0     0.0    0.00    0.00   0.182   0.271   0.310   0.363   0.365   0.367   0.364   0.367   0.369   0.370
 1975 144   205     547     228       8     289     515       0       0       0     155    0.05     0.0     0.0    0.00    0.00   0.238   0.268   0.309   0.362   0.364   0.366   0.363   0.367   0.369   0.370
 1975 145   206     545     226       8     289     516       0       0       0     155    0.05     0.0     0.0    0.00    0.00   0.234   0.263   0.306   0.360   0.363   0.365   0.362   0.367   0.369   0.370
 1975 146   207     541     222       8     289     516       0       0       0     155    0.05     0.0     0.0    0.00    0.00   0.206   0.253   0.300   0.357   0.360   0.364   0.361   0.366   0.369   0.370
 1975 147   208     538     218       8     289     516       0       0       0     155    0.05     0.0     0.0    0.00    0.00   0.183   0.245   0.295   0.354   0.358   0.362   0.359   0.366   0.369   0.370
 1975 148   209     534     215       8     289     516       0       0       0     155    0.05     0.0     0.0    0.00    0.00   0.160   0.236   0.290   0.350   0.356   0.361   0.358   0.365   0.369   0.370
 1975 149   210     533     214       8     289     516       0       0       0     155    0.05     0.0     0.0    0.00    0.00   0.157   0.233   0.288   0.349   0.355   0.360   0.357   0.365   0.369   0.370
 1975 150   211     531     211       8     289     516       0       0       0     155    0.05     0.0     0.0    0.00    0.00   0.146   0.227   0.284   0.347   0.354   0.359   0.356   0.365   0.368   0.370
 1975 151   212     528     208       8     289     516       0       0       0     155    0.05     0.0     0.0    0.00    0.00   0.138   0.218   0.278   0.343   0.352   0.358   0.355   0.364   0.368   0.370
 1975 152   213     525     206       8     289     516       0       0       0     155    0.05     0.0     0.0    0.00    0.00   0.137   0.209   0.272   0.340   0.350   0.356   0.353   0.364   0.368   0.370
 1975 153   214     528     209       8     289     522       0       0       0     155    0.05     0.0     0.0    0.00    0.00   0.247   0.200   0.266   0.337   0.347   0.355   0.352   0.363   0.368   0.370
 1975 154   215     525     205       8     289     522       0       0       0     155    0.05     0.0     0.0    0.00    0.00   0.226   0.192   0.260   0.333   0.345   0.353   0.351   0.363   0.368   0.370
 1975 155   216     524     205       8     289     524       0       0       0     155    0.06     0.0     0.0    0.00    0.00   0.244   0.186   0.256   0.331   0.344   0.353   0.350   0.362   0.368   0.370
 1975 156   217     521     202       8     289     524       0       0       0     155    0.05     0.0     0.0    0.00    0.00   0.227   0.179   0.252   0.329   0.343   0.351   0.349   0.362   0.368   0.370
 1975 157   218     516     196       8     289     524       0       0       0     155    0.05     0.0     0.0    0.00    0.00   0.191   0.171   0.241   0.322   0.339   0.349   0.346   0.361   0.368   0.370
 1975 158   219     511     191       8     289     524       0       0       0     155    0.05     0.0     0.0    0.00    0.00   0.154   0.166   0.229   0.316   0.335   0.347   0.344   0.360   0.367   0.369
 1975 159   220     505     186       8     289     524       0       0       0     155    0.05     0.0     0.0    0.00    0.00   0.130   0.162   0.214   0.308   0.331   0.344   0.341   0.359   0.367   0.369
 1975 160   221     500     181       8     289     524       0       0       0     155    0.05     0.0     0.0    0.00    0.00   0.122   0.159   0.196   0.299   0.326   0.340   0.338   0.358   0.367   0.369
 1975 161   222     495     176       8     289     524       0       0       0     155    0.04     0.0     0.0    0.00    0.00   0.114   0.155   0.189   0.286   0.319   0.336   0.333   0.357   0.366   0.369
 1975 162   223     490     170       8     289     524       0       0       0     155    0.04     0.0     0.0    0.00    0.00   0.107   0.151   0.182   0.277   0.310   0.329   0.327   0.354   0.366   0.369
 1975 163   224     484     165       8     289     524       0       0       0     155    0.04     0.0     0.0    0.00    0.00   0.100   0.148   0.178   0.271   0.299   0.322   0.320   0.352   0.365   0.369
 1975 164   225     479     160       8     289     524       0       0       0     155    0.04     0.0     0.0    0.00    0.00   0.094   0.145   0.175   0.267   0.288   0.314   0.312   0.349   0.364   0.369
 1975 165   226     476     157       8     289     524       0       0       0     155    0.04     0.0     0.0    0.00    0.00   0.090   0.144   0.173   0.265   0.284   0.309   0.307   0.347   0.363   0.369
 1975 166   227     474     154       8     289     524       0       0       0     155    0.05     0.0     0.0    0.00    0.00   0.092   0.142   0.171   0.263   0.281   0.303   0.301   0.345   0.363   0.369
 1975 167   228     476     157       8     289     529       0       0       0     155    0.06     0.0     0.0    0.00    0.00   0.193   0.141   0.170   0.261   0.278   0.298   0.296   0.343   0.362   0.369
 1975 168   229     475     156       8     289     531       0       0       0     155    0.06     0.0     0.0    0.00    0.00   0.193   0.140   0.169   0.260   0.277   0.296   0.294   0.342   0.362   0.369
 1975 169   230     471     152       8     289     531       0       0       0     155    0.06     0.0     0.0    0.00    0.00   0.140   0.140   0.168   0.259   0.276   0.293   0.292   0.341   0.362   0.369
 1975 170   231     468     148       8     289     531       0       0       0     155    0.05     0.0     0.0    0.00    0.00   0.122   0.138   0.167   0.257   0.274   0.289   0.288   0.338   0.361   0.369
 1975 171   232     463     144       8     289     531       0       0       0     155    0.05     0.0     0.0    0.00    0.00   0.110   0.136   0.164   0.254   0.270   0.283   0.282   0.334   0.360   0.368
 1975 172   233     459     140       8     289     531       0       0       0     155    0.05     0.0     0.0    0.00    0.00   0.103   0.134   0.162   0.252   0.267   0.279   0.278   0.329   0.358   0.368
 1975 173   234     456     136       8     289     531       0       0       0     155    0.05     0.0     0.0    0.00    0.00   0.097   0.133   0.160   0.250   0.265   0.275   0.275   0.325   0.357   0.368
 1975 174   235     462     142       8     289     540       0       0       0     155    0.06     0.0     0.0    0.00    0.00   0.254   0.132   0.160   0.249   0.263   0.274   0.274   0.322   0.356   0.368
 1975 175   236     456     137       8     289     540       0       0       0     155    0.06     0.0     0.0    0.00    0.00   0.174   0.131   0.159   0.248   0.263   0.273   0.273   0.320   0.355   0.368
 1975 176   237     452     132       8     289     540       0       0       0     155    0.05     0.0     0.0    0.00    0.00   0.110   0.130   0.158   0.247   0.262   0.272   0.272   0.318   0.355   0.368
 1975 177   238     449     129       8     289     540       0       0       0     155    0.05     0.0     0.0    0.00    0.00   0.103   0.130   0.157   0.245   0.260   0.270   0.270   0.314   0.353   0.367
 1975 178   239     446     126       8     289     540       0       0       0     155    0.05     0.0     0.0    0.00    0.00   0.097   0.129   0.156   0.244   0.258   0.268   0.268   0.309   0.352   0.367
 1975 179   240     443     124       8     289     540       0       0       0     155    0.05     0.0     0.0    0.00    0.00   0.093   0.129   0.155   0.243   0.257   0.267   0.267   0.306   0.351   0.367
 1975 180   241     440     121       8     289     540       0       0       0     155    0.04     0.0     0.0    0.00    0.00   0.087   0.128   0.154   0.241   0.256   0.265   0.265   0.301   0.349   0.367
 1975 181   242     438     118       8     289     540       0       0       0     155    0.04     0.0     0.0    0.00    0.00   0.082   0.128   0.153   0.240   0.255   0.264   0.264   0.297   0.348   0.366
 1975 182   243     435     116       8     289     540       0       0       0     155    0.04     0.0     0.0    0.00    0.00   0.078   0.127   0.152   0.239   0.254   0.262   0.263   0.293   0.347   0.366
 1975 183   244     433     114       8     289     540       0       0       0     155    0.04     0.0     0.0    0.00    0.00   0.074   0.127   0.151   0.238   0.252   0.261   0.261   0.291   0.345   0.366
 1975 184   245     431     112       8     289     540       0       0       0     155    0.04     0.0     0.0    0.00    0.00   0.070   0.126   0.150   0.237   0.251   0.260   0.260   0.288   0.344   0.366
 1975 185   246     430     110       8     289     540       0       0       0     155    0.04     0.0     0.0    0.00    0.00   0.066   0.126   0.150   0.236   0.251   0.259   0.259   0.286   0.342   0.365
 1975 186   247     428     108       8     289     540       0       0       0     155    0.03     0.0     0.0    0.00    0.00   0.063   0.125   0.150   0.235   0.250   0.258   0.258   0.285   0.341   0.365
 1975 187   248     426     107       8     289     540       0       0       0     155    0.03     0.0     0.0    0.00    0.00   0.061   0.125   0.150   0.234   0.249   0.257   0.258   0.283   0.339   0.365
 1975 188   249     428     108       8     289     542       0       0       0     155    0.06     0.0     0.0    0.00    0.00   0.111   0.124   0.149   0.233   0.248   0.256   0.257   0.282   0.338   0.364
 1975 189   250     426     106       8     289     542       0       0       0     155    0.06     0.0     0.0    0.00    0.00   0.104   0.124   0.149   0.233   0.247   0.256   0.256   0.281   0.336   0.364
 1975 190   251     424     105       8     289     542       0       0       0     155    0.06     0.0     0.0    0.00    0.00   0.099   0.123   0.149   0.232   0.246   0.255   0.255   0.279   0.335   0.364
 1975 191   252     423     104       8     289     543       0       0       0     155    0.06     0.0     0.0    0.00    0.00   0.097   0.123   0.149   0.231   0.246   0.254   0.254   0.278   0.334   0.364
 1975 192   253     422     102       8     289     543       0       0       0     155    0.06     0.0     0.0    0.00    0.00   0.091   0.122   0.149   0.231   0.245   0.253   0.254   0.277   0.332   0.363
 1975 193   254     423     104       8     289     546       0       0       0     155    0.06     0.0     0.0    0.00    0.00   0.145   0.122   0.149   0.230   0.244   0.253   0.253   0.276   0.331   0.363
 1975 194   255     420     101       8     289     546       0       0       0     155    0.06     0.0     0.0    0.00    0.00   0.110   0.121   0.148   0.229   0.244   0.252   0.252   0.275   0.329   0.363
 1975 195   256     420     100       8     289     546       0       0       0     155    0.06     0.0     0.0    0.00    0.00   0.112   0.121   0.148   0.229   0.243   0.252   0.252   0.275   0.328   0.363
 1975 196   257     419     100       8     289     548       0       0       0     155    0.06     0.0     0.0    0.00    0.00   0.128   0.120   0.148   0.228   0.243   0.251   0.251   0.274   0.326   0.362
 1975 197   258     417      98       8     289     548       0       0       0     155    0.06     0.0     0.0    0.00    0.00   0.112   0.120   0.148   0.228   0.242   0.250   0.251   0.273   0.325   0.362
 1975 198   259     423     104       8     289     555       0       0       0     155    0.06     0.0     0.0    0.00    0.00   0.246   0.119   0.148   0.227   0.242   0.250   0.250   0.272   0.324   0.362
 1975 199   260     420     100       8     289     555       0       0       0     155    0.06     0.0     0.0    0.00    0.00   0.188   0.119   0.148   0.227   0.241   0.250   0.250   0.272   0.323   0.362
 1975 200   261     418      98       8     289     555       0       0       0     155    0.06     0.0     0.0    0.00    0.00   0.153   0.118   0.147   0.227   0.241   0.250   0.250   0.272   0.323   0.362
 1975 201   262     416      96       8     289     555       0       0       0     155    0.06     0.0     0.0    0.00    0.00   0.119   0.118   0.147   0.226   0.241   0.249   0.250   0.272   0.323   0.362
 1975 202   263     415      95       8     289     555       0       0       0     155    0.06     0.0     0.0    0.00    0.00   0.114   0.117   0.147   0.226   0.241   0.249   0.249   0.271   0.321   0.361
 1975 203   264     413      94       8     289     556       0       0       0     155    0.06     0.0     0.0    0.00    0.00   0.110   0.117   0.147   0.225   0.240   0.248   0.249   0.270   0.320   0.361
 1975 204   265     413      93       8     289     556       0       0       0     155    0.06     0.0     0.0    0.00    0.00   0.113   0.116   0.147   0.225   0.240   0.248   0.248   0.270   0.318   0.361
 1975 205   266     413      93       8     289     558       0       0       0     155    0.06     0.0     0.0    0.00    0.00   0.136   0.116   0.147   0.224   0.239   0.247   0.248   0.269   0.317   0.361
 1975 206   267     411      91       8     289     558       0       0       0     155    0.06     0.0     0.0    0.00    0.00   0.111   0.115   0.147   0.224   0.239   0.247   0.247   0.269   0.315   0.360
 1975 207   268     409      90       8     289     558       0       0       0     155    0.05     0.0     0.0    0.00    0.00   0.104   0.115   0.146   0.223   0.238   0.246   0.247   0.268   0.314   0.360
 1975 208   269     408      89       8     289     558       0       0       0     155    0.05     0.0     0.0    0.00    0.00   0.097   0.114   0.146   0.223   0.238   0.246   0.246   0.268   0.313   0.360
 1975 209   270     407      88       8     289     558       0       0       0     155    0.05     0.0     0.0    0.00    0.00   0.091   0.114   0.146   0.223   0.237   0.246   0.246   0.267   0.311   0.359
 1975 210   271     406      86       8     289     558       0       0       0     155    0.05     0.0     0.0    0.00    0.00   0.086   0.114   0.146   0.222   0.237   0.245   0.246   0.267   0.310   0.359
 1975 211   272     405      85       8     289     558       0       0       0     155    0.04     0.0     0.0    0.00    0.00   0.081   0.113   0.146   0.222   0.237   0.245   0.245   0.266   0.308   0.359
 1975 212   273     404      84       8     289     558       0       0       0     155    0.04     0.0     0.0    0.00    0.00   0.077   0.113   0.146   0.221   0.236   0.244   0.245   0.266   0.307   0.359
 1975 213   274     403      83       8     289     558       0       0       0     155    0.04     0.0     0.0    0.00    0.00   0.073   0.112   0.145   0.221   0.236   0.244   0.244   0.265   0.306   0.358
 1975 214   275     402      82       8     289     558       0       0       0     155    0.04     0.0     0.0    0.00    0.00   0.069   0.112   0.145   0.220   0.235   0.244   0.244   0.265   0.304   0.358
