*WARNING DETAIL FILE

******************************************************************************

*DSSAT Cropping System Model Ver. 4.8.2.010 -develop  JUL 08, 2024 16:11:18

*RUN   1        : 0 KG N/HA                 CSCER048 RORO7401    1
 MODEL          : CSCER048 - Wheat
 EXPERIMENT     : RORO7401 WH N RESPONSE,ROTHAMSTED  8FE(N)  (DSSAT3)
 DATA PATH      : C:\DSSAT48\Wheat\
 TREATMENT  1   : 0 KG N/HA                 CSCER048
  

 IPSOIL  YEAR DOY =    0   0
 Saturated hydraulic conductivity equal to zero for one or more soil layers.   
 Data will be treated as missing.                                              

 IPWTH   YEAR DOY = 1974 305
 Value of TAMP, amplitude of soil temperature function, is missing.            
 A default value of  5.0°C is being used for this simulation,                 
 which may produce inaccurate results.                                         

 WTHINIT  YEAR DOY = 1974 305
 Warning: SRAD < 1 MJ.m-2.d-1.                                                 
 C:\DSSAT48\Weather\RORO7401.WTH                                               
 Line        0                                                                 
 SRAD =   0.80 MJ.m-2.d-1                                                      

 IPWTH   YEAR DOY = 1974 305
 Warning: SRAD < 1 MJ.m-2.d-1.                                                 
 C:\DSSAT48\Weather\RORO7401.WTH                                               
 Line        6                                                                 
 SRAD =   0.80 MJ.m-2.d-1                                                      

 IPWTH   YEAR DOY = 1974 317
 Warning: SRAD < 1 MJ.m-2.d-1.                                                 
 C:\DSSAT48\Weather\RORO7401.WTH                                               
 Line       18                                                                 
 SRAD =   0.50 MJ.m-2.d-1                                                      

 IPWTH   YEAR DOY = 1974 322
 Warning: SRAD < 1 MJ.m-2.d-1.                                                 
 C:\DSSAT48\Weather\RORO7401.WTH                                               
 Line       23                                                                 
 SRAD =   0.70 MJ.m-2.d-1                                                      

 IPWTH   YEAR DOY = 1974 324
 Warning: SRAD < 1 MJ.m-2.d-1.                                                 
 C:\DSSAT48\Weather\RORO7401.WTH                                               
 Line       25                                                                 
 SRAD =   0.20 MJ.m-2.d-1                                                      

 IPWTH   YEAR DOY = 1974 326
 Warning: SRAD < 1 MJ.m-2.d-1.                                                 
 C:\DSSAT48\Weather\RORO7401.WTH                                               
 Line       27                                                                 
 SRAD =   0.80 MJ.m-2.d-1                                                      

 IPWTH   YEAR DOY = 1974 328
 Warning: SRAD < 1 MJ.m-2.d-1.                                                 
 C:\DSSAT48\Weather\RORO7401.WTH                                               
 Line       29                                                                 
 SRAD =   0.90 MJ.m-2.d-1                                                      

 IPWTH   YEAR DOY = 1974 331
 Warning: SRAD < 1 MJ.m-2.d-1.                                                 
 C:\DSSAT48\Weather\RORO7401.WTH                                               
 Line       32                                                                 
 SRAD =   0.90 MJ.m-2.d-1                                                      

 IPWTH   YEAR DOY = 1974 337
 Warning: SRAD < 1 MJ.m-2.d-1.                                                 
 C:\DSSAT48\Weather\RORO7401.WTH                                               
 Line       38                                                                 
 SRAD =   0.80 MJ.m-2.d-1                                                      

 IPWTH   YEAR DOY = 1974 342
 Warning: SRAD < 1 MJ.m-2.d-1.                                                 
 C:\DSSAT48\Weather\RORO7401.WTH                                               
 Line       43                                                                 
 SRAD =   0.40 MJ.m-2.d-1                                                      

 IPWTH   YEAR DOY = 1974 346
 Warning: SRAD < 1 MJ.m-2.d-1.                                                 
 C:\DSSAT48\Weather\RORO7401.WTH                                               
 Line       47                                                                 
 SRAD =   0.30 MJ.m-2.d-1                                                      

 IPWTH   YEAR DOY = 1974 350
 Warning: SRAD < 1 MJ.m-2.d-1.                                                 
 C:\DSSAT48\Weather\RORO7401.WTH                                               
 Line       51                                                                 
 SRAD =   0.20 MJ.m-2.d-1                                                      

 IPWTH   YEAR DOY = 1974 353
 Warning: SRAD < 1 MJ.m-2.d-1.                                                 
 C:\DSSAT48\Weather\RORO7401.WTH                                               
 Line       54                                                                 
 SRAD =   0.90 MJ.m-2.d-1                                                      

 IPWTH   YEAR DOY = 1974 355
 Warning: SRAD < 1 MJ.m-2.d-1.                                                 
 C:\DSSAT48\Weather\RORO7401.WTH                                               
 Line       56                                                                 
 SRAD =   0.30 MJ.m-2.d-1                                                      

 IPWTH   YEAR DOY = 1974 359
 Warning: SRAD < 1 MJ.m-2.d-1.                                                 
 C:\DSSAT48\Weather\RORO7401.WTH                                               
 Line       60                                                                 
 SRAD =   0.20 MJ.m-2.d-1                                                      

 IPWTH   YEAR DOY = 1975   1
 Warning: SRAD < 1 MJ.m-2.d-1.                                                 
 C:\DSSAT48\Weather\RORO7501.WTH                                               
 Line        6                                                                 
 SRAD =   0.80 MJ.m-2.d-1                                                      

 IPWTH   YEAR DOY = 1975   2
 Warning: SRAD < 1 MJ.m-2.d-1.                                                 
 C:\DSSAT48\Weather\RORO7501.WTH                                               
 Line        7                                                                 
 SRAD =   0.80 MJ.m-2.d-1                                                      

 IPWTH   YEAR DOY = 1975   6
 Warning: SRAD < 1 MJ.m-2.d-1.                                                 
 C:\DSSAT48\Weather\RORO7501.WTH                                               
 Line       11                                                                 
 SRAD =   0.40 MJ.m-2.d-1                                                      

 IPWTH   YEAR DOY = 1975   8
 Warning: SRAD < 1 MJ.m-2.d-1.                                                 
 C:\DSSAT48\Weather\RORO7501.WTH                                               
 Line       13                                                                 
 SRAD =   0.90 MJ.m-2.d-1                                                      

 IPWTH   YEAR DOY = 1975   9
 Warning: SRAD < 1 MJ.m-2.d-1.                                                 
 C:\DSSAT48\Weather\RORO7501.WTH                                               
 Line       14                                                                 
 SRAD =   0.40 MJ.m-2.d-1                                                      

 IPWTH   YEAR DOY = 1975  10
 Warning: SRAD < 1 MJ.m-2.d-1.                                                 
 C:\DSSAT48\Weather\RORO7501.WTH                                               
 Line       15                                                                 
 SRAD =   0.30 MJ.m-2.d-1                                                      

 IPWTH   YEAR DOY = 1975  12
 Warning: SRAD < 1 MJ.m-2.d-1.                                                 
 C:\DSSAT48\Weather\RORO7501.WTH                                               
 Line       17                                                                 
 SRAD =   0.50 MJ.m-2.d-1                                                      

 IPWTH   YEAR DOY = 1975  18
 Warning: SRAD < 1 MJ.m-2.d-1.                                                 
 C:\DSSAT48\Weather\RORO7501.WTH                                               
 Line       23                                                                 
 SRAD =   0.30 MJ.m-2.d-1                                                      

 IPWTH   YEAR DOY = 1975  22
 Warning: SRAD < 1 MJ.m-2.d-1.                                                 
 C:\DSSAT48\Weather\RORO7501.WTH                                               
 Line       27                                                                 
 SRAD =   0.20 MJ.m-2.d-1                                                      

 IPWTH   YEAR DOY = 1975  27
 Warning: SRAD < 1 MJ.m-2.d-1.                                                 
 C:\DSSAT48\Weather\RORO7501.WTH                                               
 Line       32                                                                 
 SRAD =   0.50 MJ.m-2.d-1                                                      

 IPWTH   YEAR DOY = 1975  28
 Warning: SRAD < 1 MJ.m-2.d-1.                                                 
 C:\DSSAT48\Weather\RORO7501.WTH                                               
 Line       33                                                                 
 SRAD =   0.30 MJ.m-2.d-1                                                      

 IPWTH   YEAR DOY = 1975  29
 Warning: SRAD < 1 MJ.m-2.d-1.                                                 
 C:\DSSAT48\Weather\RORO7501.WTH                                               
 Line       34                                                                 
 SRAD =   0.80 MJ.m-2.d-1                                                      

 IPWTH   YEAR DOY = 1975  71
 Warning: SRAD < 1 MJ.m-2.d-1.                                                 
 C:\DSSAT48\Weather\RORO7501.WTH                                               
 Line       76                                                                 
 SRAD =   0.50 MJ.m-2.d-1                                                      

 IPWTH   YEAR DOY = 1975  72
 Warning: SRAD < 1 MJ.m-2.d-1.                                                 
 C:\DSSAT48\Weather\RORO7501.WTH                                               
 Line       77                                                                 
 SRAD =   0.80 MJ.m-2.d-1                                                      

 IPWTH   YEAR DOY = 1975  79
 Warning: SRAD < 1 MJ.m-2.d-1.                                                 
 C:\DSSAT48\Weather\RORO7501.WTH                                               
 Line       84                                                                 
 SRAD =   0.80 MJ.m-2.d-1                                                      

******************************************************************************

*DSSAT Cropping System Model Ver. 4.8.2.010 -develop  JUL 08, 2024 16:11:18

*RUN   2        : 30 KG N/HA                CSCER048 RORO7401    2
 MODEL          : CSCER048 - Wheat
 EXPERIMENT     : RORO7401 WH N RESPONSE,ROTHAMSTED  8FE(N)  (DSSAT3)
 DATA PATH      : C:\DSSAT48\Wheat\
 TREATMENT  2   : 30 KG N/HA                CSCER048
  

 IPSOIL  YEAR DOY =    0   0
 Saturated hydraulic conductivity equal to zero for one or more soil layers.   
 Data will be treated as missing.                                              

 IPWTH   YEAR DOY = 1974 305
 Value of TAMP, amplitude of soil temperature function, is missing.            
 A default value of  5.0°C is being used for this simulation,                 
 which may produce inaccurate results.                                         

 WTHINIT  YEAR DOY = 1974 305
 Warning: SRAD < 1 MJ.m-2.d-1.                                                 
 C:\DSSAT48\Weather\RORO7401.WTH                                               
 Line      219                                                                 
 SRAD =   0.80 MJ.m-2.d-1                                                      

 IPWTH   YEAR DOY = 1974 305
 Warning: SRAD < 1 MJ.m-2.d-1.                                                 
 C:\DSSAT48\Weather\RORO7401.WTH                                               
 Line        6                                                                 
 SRAD =   0.80 MJ.m-2.d-1                                                      

 IPWTH   YEAR DOY = 1974 317
 Warning: SRAD < 1 MJ.m-2.d-1.                                                 
 C:\DSSAT48\Weather\RORO7401.WTH                                               
 Line       18                                                                 
 SRAD =   0.50 MJ.m-2.d-1                                                      

 IPWTH   YEAR DOY = 1974 322
 Warning: SRAD < 1 MJ.m-2.d-1.                                                 
 C:\DSSAT48\Weather\RORO7401.WTH                                               
 Line       23                                                                 
 SRAD =   0.70 MJ.m-2.d-1                                                      

 IPWTH   YEAR DOY = 1974 324
 Warning: SRAD < 1 MJ.m-2.d-1.                                                 
 C:\DSSAT48\Weather\RORO7401.WTH                                               
 Line       25                                                                 
 SRAD =   0.20 MJ.m-2.d-1                                                      

 IPWTH   YEAR DOY = 1974 326
 Warning: SRAD < 1 MJ.m-2.d-1.                                                 
 C:\DSSAT48\Weather\RORO7401.WTH                                               
 Line       27                                                                 
 SRAD =   0.80 MJ.m-2.d-1                                                      

 IPWTH   YEAR DOY = 1974 328
 Warning: SRAD < 1 MJ.m-2.d-1.                                                 
 C:\DSSAT48\Weather\RORO7401.WTH                                               
 Line       29                                                                 
 SRAD =   0.90 MJ.m-2.d-1                                                      

 IPWTH   YEAR DOY = 1974 331
 Warning: SRAD < 1 MJ.m-2.d-1.                                                 
 C:\DSSAT48\Weather\RORO7401.WTH                                               
 Line       32                                                                 
 SRAD =   0.90 MJ.m-2.d-1                                                      

 IPWTH   YEAR DOY = 1974 337
 Warning: SRAD < 1 MJ.m-2.d-1.                                                 
 C:\DSSAT48\Weather\RORO7401.WTH                                               
 Line       38                                                                 
 SRAD =   0.80 MJ.m-2.d-1                                                      

 IPWTH   YEAR DOY = 1974 342
 Warning: SRAD < 1 MJ.m-2.d-1.                                                 
 C:\DSSAT48\Weather\RORO7401.WTH                                               
 Line       43                                                                 
 SRAD =   0.40 MJ.m-2.d-1                                                      

 IPWTH   YEAR DOY = 1974 346
 Warning: SRAD < 1 MJ.m-2.d-1.                                                 
 C:\DSSAT48\Weather\RORO7401.WTH                                               
 Line       47                                                                 
 SRAD =   0.30 MJ.m-2.d-1                                                      

 IPWTH   YEAR DOY = 1974 350
 Warning: SRAD < 1 MJ.m-2.d-1.                                                 
 C:\DSSAT48\Weather\RORO7401.WTH                                               
 Line       51                                                                 
 SRAD =   0.20 MJ.m-2.d-1                                                      

 IPWTH   YEAR DOY = 1974 353
 Warning: SRAD < 1 MJ.m-2.d-1.                                                 
 C:\DSSAT48\Weather\RORO7401.WTH                                               
 Line       54                                                                 
 SRAD =   0.90 MJ.m-2.d-1                                                      

 IPWTH   YEAR DOY = 1974 355
 Warning: SRAD < 1 MJ.m-2.d-1.                                                 
 C:\DSSAT48\Weather\RORO7401.WTH                                               
 Line       56                                                                 
 SRAD =   0.30 MJ.m-2.d-1                                                      

 IPWTH   YEAR DOY = 1974 359
 Warning: SRAD < 1 MJ.m-2.d-1.                                                 
 C:\DSSAT48\Weather\RORO7401.WTH                                               
 Line       60                                                                 
 SRAD =   0.20 MJ.m-2.d-1                                                      

 IPWTH   YEAR DOY = 1975   1
 Warning: SRAD < 1 MJ.m-2.d-1.                                                 
 C:\DSSAT48\Weather\RORO7501.WTH                                               
 Line        6                                                                 
 SRAD =   0.80 MJ.m-2.d-1                                                      

 IPWTH   YEAR DOY = 1975   2
 Warning: SRAD < 1 MJ.m-2.d-1.                                                 
 C:\DSSAT48\Weather\RORO7501.WTH                                               
 Line        7                                                                 
 SRAD =   0.80 MJ.m-2.d-1                                                      

 IPWTH   YEAR DOY = 1975   6
 Warning: SRAD < 1 MJ.m-2.d-1.                                                 
 C:\DSSAT48\Weather\RORO7501.WTH                                               
 Line       11                                                                 
 SRAD =   0.40 MJ.m-2.d-1                                                      

 IPWTH   YEAR DOY = 1975   8
 Warning: SRAD < 1 MJ.m-2.d-1.                                                 
 C:\DSSAT48\Weather\RORO7501.WTH                                               
 Line       13                                                                 
 SRAD =   0.90 MJ.m-2.d-1                                                      

 IPWTH   YEAR DOY = 1975   9
 Warning: SRAD < 1 MJ.m-2.d-1.                                                 
 C:\DSSAT48\Weather\RORO7501.WTH                                               
 Line       14                                                                 
 SRAD =   0.40 MJ.m-2.d-1                                                      

 IPWTH   YEAR DOY = 1975  10
 Warning: SRAD < 1 MJ.m-2.d-1.                                                 
 C:\DSSAT48\Weather\RORO7501.WTH                                               
 Line       15                                                                 
 SRAD =   0.30 MJ.m-2.d-1                                                      

 IPWTH   YEAR DOY = 1975  12
 Warning: SRAD < 1 MJ.m-2.d-1.                                                 
 C:\DSSAT48\Weather\RORO7501.WTH                                               
 Line       17                                                                 
 SRAD =   0.50 MJ.m-2.d-1                                                      

 IPWTH   YEAR DOY = 1975  18
 Warning: SRAD < 1 MJ.m-2.d-1.                                                 
 C:\DSSAT48\Weather\RORO7501.WTH                                               
 Line       23                                                                 
 SRAD =   0.30 MJ.m-2.d-1                                                      

 IPWTH   YEAR DOY = 1975  22
 Warning: SRAD < 1 MJ.m-2.d-1.                                                 
 C:\DSSAT48\Weather\RORO7501.WTH                                               
 Line       27                                                                 
 SRAD =   0.20 MJ.m-2.d-1                                                      

 IPWTH   YEAR DOY = 1975  27
 Warning: SRAD < 1 MJ.m-2.d-1.                                                 
 C:\DSSAT48\Weather\RORO7501.WTH                                               
 Line       32                                                                 
 SRAD =   0.50 MJ.m-2.d-1                                                      

 IPWTH   YEAR DOY = 1975  28
 Warning: SRAD < 1 MJ.m-2.d-1.                                                 
 C:\DSSAT48\Weather\RORO7501.WTH                                               
 Line       33                                                                 
 SRAD =   0.30 MJ.m-2.d-1                                                      

 IPWTH   YEAR DOY = 1975  29
 Warning: SRAD < 1 MJ.m-2.d-1.                                                 
 C:\DSSAT48\Weather\RORO7501.WTH                                               
 Line       34                                                                 
 SRAD =   0.80 MJ.m-2.d-1                                                      

 IPWTH   YEAR DOY = 1975  71
 Warning: SRAD < 1 MJ.m-2.d-1.                                                 
 C:\DSSAT48\Weather\RORO7501.WTH                                               
 Line       76                                                                 
 SRAD =   0.50 MJ.m-2.d-1                                                      

 IPWTH   YEAR DOY = 1975  72
 Warning: SRAD < 1 MJ.m-2.d-1.                                                 
 C:\DSSAT48\Weather\RORO7501.WTH                                               
 Line       77                                                                 
 SRAD =   0.80 MJ.m-2.d-1                                                      

 IPWTH   YEAR DOY = 1975  79
 Warning: SRAD < 1 MJ.m-2.d-1.                                                 
 C:\DSSAT48\Weather\RORO7501.WTH                                               
 Line       84                                                                 
 SRAD =   0.80 MJ.m-2.d-1                                                      

******************************************************************************

*DSSAT Cropping System Model Ver. 4.8.2.010 -develop  JUL 08, 2024 16:11:18

*RUN   3        : 60 KG N/HA                CSCER048 RORO7401    3
 MODEL          : CSCER048 - Wheat
 EXPERIMENT     : RORO7401 WH N RESPONSE,ROTHAMSTED  8FE(N)  (DSSAT3)
 DATA PATH      : C:\DSSAT48\Wheat\
 TREATMENT  3   : 60 KG N/HA                CSCER048
  

 IPSOIL  YEAR DOY =    0   0
 Saturated hydraulic conductivity equal to zero for one or more soil layers.   
 Data will be treated as missing.                                              

 IPWTH   YEAR DOY = 1974 305
 Value of TAMP, amplitude of soil temperature function, is missing.            
 A default value of  5.0°C is being used for this simulation,                 
 which may produce inaccurate results.                                         

 WTHINIT  YEAR DOY = 1974 305
 Warning: SRAD < 1 MJ.m-2.d-1.                                                 
 C:\DSSAT48\Weather\RORO7401.WTH                                               
 Line      219                                                                 
 SRAD =   0.80 MJ.m-2.d-1                                                      

 IPWTH   YEAR DOY = 1974 305
 Warning: SRAD < 1 MJ.m-2.d-1.                                                 
 C:\DSSAT48\Weather\RORO7401.WTH                                               
 Line        6                                                                 
 SRAD =   0.80 MJ.m-2.d-1                                                      

 IPWTH   YEAR DOY = 1974 317
 Warning: SRAD < 1 MJ.m-2.d-1.                                                 
 C:\DSSAT48\Weather\RORO7401.WTH                                               
 Line       18                                                                 
 SRAD =   0.50 MJ.m-2.d-1                                                      

 IPWTH   YEAR DOY = 1974 322
 Warning: SRAD < 1 MJ.m-2.d-1.                                                 
 C:\DSSAT48\Weather\RORO7401.WTH                                               
 Line       23                                                                 
 SRAD =   0.70 MJ.m-2.d-1                                                      

 IPWTH   YEAR DOY = 1974 324
 Warning: SRAD < 1 MJ.m-2.d-1.                                                 
 C:\DSSAT48\Weather\RORO7401.WTH                                               
 Line       25                                                                 
 SRAD =   0.20 MJ.m-2.d-1                                                      

 IPWTH   YEAR DOY = 1974 326
 Warning: SRAD < 1 MJ.m-2.d-1.                                                 
 C:\DSSAT48\Weather\RORO7401.WTH                                               
 Line       27                                                                 
 SRAD =   0.80 MJ.m-2.d-1                                                      

 IPWTH   YEAR DOY = 1974 328
 Warning: SRAD < 1 MJ.m-2.d-1.                                                 
 C:\DSSAT48\Weather\RORO7401.WTH                                               
 Line       29                                                                 
 SRAD =   0.90 MJ.m-2.d-1                                                      

 IPWTH   YEAR DOY = 1974 331
 Warning: SRAD < 1 MJ.m-2.d-1.                                                 
 C:\DSSAT48\Weather\RORO7401.WTH                                               
 Line       32                                                                 
 SRAD =   0.90 MJ.m-2.d-1                                                      

 IPWTH   YEAR DOY = 1974 337
 Warning: SRAD < 1 MJ.m-2.d-1.                                                 
 C:\DSSAT48\Weather\RORO7401.WTH                                               
 Line       38                                                                 
 SRAD =   0.80 MJ.m-2.d-1                                                      

 IPWTH   YEAR DOY = 1974 342
 Warning: SRAD < 1 MJ.m-2.d-1.                                                 
 C:\DSSAT48\Weather\RORO7401.WTH                                               
 Line       43                                                                 
 SRAD =   0.40 MJ.m-2.d-1                                                      

 IPWTH   YEAR DOY = 1974 346
 Warning: SRAD < 1 MJ.m-2.d-1.                                                 
 C:\DSSAT48\Weather\RORO7401.WTH                                               
 Line       47                                                                 
 SRAD =   0.30 MJ.m-2.d-1                                                      

 IPWTH   YEAR DOY = 1974 350
 Warning: SRAD < 1 MJ.m-2.d-1.                                                 
 C:\DSSAT48\Weather\RORO7401.WTH                                               
 Line       51                                                                 
 SRAD =   0.20 MJ.m-2.d-1                                                      

 IPWTH   YEAR DOY = 1974 353
 Warning: SRAD < 1 MJ.m-2.d-1.                                                 
 C:\DSSAT48\Weather\RORO7401.WTH                                               
 Line       54                                                                 
 SRAD =   0.90 MJ.m-2.d-1                                                      

 IPWTH   YEAR DOY = 1974 355
 Warning: SRAD < 1 MJ.m-2.d-1.                                                 
 C:\DSSAT48\Weather\RORO7401.WTH                                               
 Line       56                                                                 
 SRAD =   0.30 MJ.m-2.d-1                                                      

 IPWTH   YEAR DOY = 1974 359
 Warning: SRAD < 1 MJ.m-2.d-1.                                                 
 C:\DSSAT48\Weather\RORO7401.WTH                                               
 Line       60                                                                 
 SRAD =   0.20 MJ.m-2.d-1                                                      

 IPWTH   YEAR DOY = 1975   1
 Warning: SRAD < 1 MJ.m-2.d-1.                                                 
 C:\DSSAT48\Weather\RORO7501.WTH                                               
 Line        6                                                                 
 SRAD =   0.80 MJ.m-2.d-1                                                      

 IPWTH   YEAR DOY = 1975   2
 Warning: SRAD < 1 MJ.m-2.d-1.                                                 
 C:\DSSAT48\Weather\RORO7501.WTH                                               
 Line        7                                                                 
 SRAD =   0.80 MJ.m-2.d-1                                                      

 IPWTH   YEAR DOY = 1975   6
 Warning: SRAD < 1 MJ.m-2.d-1.                                                 
 C:\DSSAT48\Weather\RORO7501.WTH                                               
 Line       11                                                                 
 SRAD =   0.40 MJ.m-2.d-1                                                      

 IPWTH   YEAR DOY = 1975   8
 Warning: SRAD < 1 MJ.m-2.d-1.                                                 
 C:\DSSAT48\Weather\RORO7501.WTH                                               
 Line       13                                                                 
 SRAD =   0.90 MJ.m-2.d-1                                                      

 IPWTH   YEAR DOY = 1975   9
 Warning: SRAD < 1 MJ.m-2.d-1.                                                 
 C:\DSSAT48\Weather\RORO7501.WTH                                               
 Line       14                                                                 
 SRAD =   0.40 MJ.m-2.d-1                                                      

 IPWTH   YEAR DOY = 1975  10
 Warning: SRAD < 1 MJ.m-2.d-1.                                                 
 C:\DSSAT48\Weather\RORO7501.WTH                                               
 Line       15                                                                 
 SRAD =   0.30 MJ.m-2.d-1                                                      

 IPWTH   YEAR DOY = 1975  12
 Warning: SRAD < 1 MJ.m-2.d-1.                                                 
 C:\DSSAT48\Weather\RORO7501.WTH                                               
 Line       17                                                                 
 SRAD =   0.50 MJ.m-2.d-1                                                      

 IPWTH   YEAR DOY = 1975  18
 Warning: SRAD < 1 MJ.m-2.d-1.                                                 
 C:\DSSAT48\Weather\RORO7501.WTH                                               
 Line       23                                                                 
 SRAD =   0.30 MJ.m-2.d-1                                                      

 IPWTH   YEAR DOY = 1975  22
 Warning: SRAD < 1 MJ.m-2.d-1.                                                 
 C:\DSSAT48\Weather\RORO7501.WTH                                               
 Line       27                                                                 
 SRAD =   0.20 MJ.m-2.d-1                                                      

 IPWTH   YEAR DOY = 1975  27
 Warning: SRAD < 1 MJ.m-2.d-1.                                                 
 C:\DSSAT48\Weather\RORO7501.WTH                                               
 Line       32                                                                 
 SRAD =   0.50 MJ.m-2.d-1                                                      

 IPWTH   YEAR DOY = 1975  28
 Warning: SRAD < 1 MJ.m-2.d-1.                                                 
 C:\DSSAT48\Weather\RORO7501.WTH                                               
 Line       33                                                                 
 SRAD =   0.30 MJ.m-2.d-1                                                      

 IPWTH   YEAR DOY = 1975  29
 Warning: SRAD < 1 MJ.m-2.d-1.                                                 
 C:\DSSAT48\Weather\RORO7501.WTH                                               
 Line       34                                                                 
 SRAD =   0.80 MJ.m-2.d-1                                                      

 IPWTH   YEAR DOY = 1975  71
 Warning: SRAD < 1 MJ.m-2.d-1.                                                 
 C:\DSSAT48\Weather\RORO7501.WTH                                               
 Line       76                                                                 
 SRAD =   0.50 MJ.m-2.d-1                                                      

 IPWTH   YEAR DOY = 1975  72
 Warning: SRAD < 1 MJ.m-2.d-1.                                                 
 C:\DSSAT48\Weather\RORO7501.WTH                                               
 Line       77                                                                 
 SRAD =   0.80 MJ.m-2.d-1                                                      

 IPWTH   YEAR DOY = 1975  79
 Warning: SRAD < 1 MJ.m-2.d-1.                                                 
 C:\DSSAT48\Weather\RORO7501.WTH                                               
 Line       84                                                                 
 SRAD =   0.80 MJ.m-2.d-1                                                      

******************************************************************************

*DSSAT Cropping System Model Ver. 4.8.2.010 -develop  JUL 08, 2024 16:11:18

*RUN   4        : 90 KG N/HA                CSCER048 RORO7401    4
 MODEL          : CSCER048 - Wheat
 EXPERIMENT     : RORO7401 WH N RESPONSE,ROTHAMSTED  8FE(N)  (DSSAT3)
 DATA PATH      : C:\DSSAT48\Wheat\
 TREATMENT  4   : 90 KG N/HA                CSCER048
  

 IPSOIL  YEAR DOY =    0   0
 Saturated hydraulic conductivity equal to zero for one or more soil layers.   
 Data will be treated as missing.                                              

 IPWTH   YEAR DOY = 1974 305
 Value of TAMP, amplitude of soil temperature function, is missing.            
 A default value of  5.0°C is being used for this simulation,                 
 which may produce inaccurate results.                                         

 WTHINIT  YEAR DOY = 1974 305
 Warning: SRAD < 1 MJ.m-2.d-1.                                                 
 C:\DSSAT48\Weather\RORO7401.WTH                                               
 Line      219                                                                 
 SRAD =   0.80 MJ.m-2.d-1                                                      

 IPWTH   YEAR DOY = 1974 305
 Warning: SRAD < 1 MJ.m-2.d-1.                                                 
 C:\DSSAT48\Weather\RORO7401.WTH                                               
 Line        6                                                                 
 SRAD =   0.80 MJ.m-2.d-1                                                      

 IPWTH   YEAR DOY = 1974 317
 Warning: SRAD < 1 MJ.m-2.d-1.                                                 
 C:\DSSAT48\Weather\RORO7401.WTH                                               
 Line       18                                                                 
 SRAD =   0.50 MJ.m-2.d-1                                                      

 IPWTH   YEAR DOY = 1974 322
 Warning: SRAD < 1 MJ.m-2.d-1.                                                 
 C:\DSSAT48\Weather\RORO7401.WTH                                               
 Line       23                                                                 
 SRAD =   0.70 MJ.m-2.d-1                                                      

 IPWTH   YEAR DOY = 1974 324
 Warning: SRAD < 1 MJ.m-2.d-1.                                                 
 C:\DSSAT48\Weather\RORO7401.WTH                                               
 Line       25                                                                 
 SRAD =   0.20 MJ.m-2.d-1                                                      

 IPWTH   YEAR DOY = 1974 326
 Warning: SRAD < 1 MJ.m-2.d-1.                                                 
 C:\DSSAT48\Weather\RORO7401.WTH                                               
 Line       27                                                                 
 SRAD =   0.80 MJ.m-2.d-1                                                      

 IPWTH   YEAR DOY = 1974 328
 Warning: SRAD < 1 MJ.m-2.d-1.                                                 
 C:\DSSAT48\Weather\RORO7401.WTH                                               
 Line       29                                                                 
 SRAD =   0.90 MJ.m-2.d-1                                                      

 IPWTH   YEAR DOY = 1974 331
 Warning: SRAD < 1 MJ.m-2.d-1.                                                 
 C:\DSSAT48\Weather\RORO7401.WTH                                               
 Line       32                                                                 
 SRAD =   0.90 MJ.m-2.d-1                                                      

 IPWTH   YEAR DOY = 1974 337
 Warning: SRAD < 1 MJ.m-2.d-1.                                                 
 C:\DSSAT48\Weather\RORO7401.WTH                                               
 Line       38                                                                 
 SRAD =   0.80 MJ.m-2.d-1                                                      

 IPWTH   YEAR DOY = 1974 342
 Warning: SRAD < 1 MJ.m-2.d-1.                                                 
 C:\DSSAT48\Weather\RORO7401.WTH                                               
 Line       43                                                                 
 SRAD =   0.40 MJ.m-2.d-1                                                      

 IPWTH   YEAR DOY = 1974 346
 Warning: SRAD < 1 MJ.m-2.d-1.                                                 
 C:\DSSAT48\Weather\RORO7401.WTH                                               
 Line       47                                                                 
 SRAD =   0.30 MJ.m-2.d-1                                                      

 IPWTH   YEAR DOY = 1974 350
 Warning: SRAD < 1 MJ.m-2.d-1.                                                 
 C:\DSSAT48\Weather\RORO7401.WTH                                               
 Line       51                                                                 
 SRAD =   0.20 MJ.m-2.d-1                                                      

 IPWTH   YEAR DOY = 1974 353
 Warning: SRAD < 1 MJ.m-2.d-1.                                                 
 C:\DSSAT48\Weather\RORO7401.WTH                                               
 Line       54                                                                 
 SRAD =   0.90 MJ.m-2.d-1                                                      

 IPWTH   YEAR DOY = 1974 355
 Warning: SRAD < 1 MJ.m-2.d-1.                                                 
 C:\DSSAT48\Weather\RORO7401.WTH                                               
 Line       56                                                                 
 SRAD =   0.30 MJ.m-2.d-1                                                      

 IPWTH   YEAR DOY = 1974 359
 Warning: SRAD < 1 MJ.m-2.d-1.                                                 
 C:\DSSAT48\Weather\RORO7401.WTH                                               
 Line       60                                                                 
 SRAD =   0.20 MJ.m-2.d-1                                                      

 IPWTH   YEAR DOY = 1975   1
 Warning: SRAD < 1 MJ.m-2.d-1.                                                 
 C:\DSSAT48\Weather\RORO7501.WTH                                               
 Line        6                                                                 
 SRAD =   0.80 MJ.m-2.d-1                                                      

 IPWTH   YEAR DOY = 1975   2
 Warning: SRAD < 1 MJ.m-2.d-1.                                                 
 C:\DSSAT48\Weather\RORO7501.WTH                                               
 Line        7                                                                 
 SRAD =   0.80 MJ.m-2.d-1                                                      

 IPWTH   YEAR DOY = 1975   6
 Warning: SRAD < 1 MJ.m-2.d-1.                                                 
 C:\DSSAT48\Weather\RORO7501.WTH                                               
 Line       11                                                                 
 SRAD =   0.40 MJ.m-2.d-1                                                      

 IPWTH   YEAR DOY = 1975   8
 Warning: SRAD < 1 MJ.m-2.d-1.                                                 
 C:\DSSAT48\Weather\RORO7501.WTH                                               
 Line       13                                                                 
 SRAD =   0.90 MJ.m-2.d-1                                                      

 IPWTH   YEAR DOY = 1975   9
 Warning: SRAD < 1 MJ.m-2.d-1.                                                 
 C:\DSSAT48\Weather\RORO7501.WTH                                               
 Line       14                                                                 
 SRAD =   0.40 MJ.m-2.d-1                                                      

 IPWTH   YEAR DOY = 1975  10
 Warning: SRAD < 1 MJ.m-2.d-1.                                                 
 C:\DSSAT48\Weather\RORO7501.WTH                                               
 Line       15                                                                 
 SRAD =   0.30 MJ.m-2.d-1                                                      

 IPWTH   YEAR DOY = 1975  12
 Warning: SRAD < 1 MJ.m-2.d-1.                                                 
 C:\DSSAT48\Weather\RORO7501.WTH                                               
 Line       17                                                                 
 SRAD =   0.50 MJ.m-2.d-1                                                      

 IPWTH   YEAR DOY = 1975  18
 Warning: SRAD < 1 MJ.m-2.d-1.                                                 
 C:\DSSAT48\Weather\RORO7501.WTH                                               
 Line       23                                                                 
 SRAD =   0.30 MJ.m-2.d-1                                                      

 IPWTH   YEAR DOY = 1975  22
 Warning: SRAD < 1 MJ.m-2.d-1.                                                 
 C:\DSSAT48\Weather\RORO7501.WTH                                               
 Line       27                                                                 
 SRAD =   0.20 MJ.m-2.d-1                                                      

 IPWTH   YEAR DOY = 1975  27
 Warning: SRAD < 1 MJ.m-2.d-1.                                                 
 C:\DSSAT48\Weather\RORO7501.WTH                                               
 Line       32                                                                 
 SRAD =   0.50 MJ.m-2.d-1                                                      

 IPWTH   YEAR DOY = 1975  28
 Warning: SRAD < 1 MJ.m-2.d-1.                                                 
 C:\DSSAT48\Weather\RORO7501.WTH                                               
 Line       33                                                                 
 SRAD =   0.30 MJ.m-2.d-1                                                      

 IPWTH   YEAR DOY = 1975  29
 Warning: SRAD < 1 MJ.m-2.d-1.                                                 
 C:\DSSAT48\Weather\RORO7501.WTH                                               
 Line       34                                                                 
 SRAD =   0.80 MJ.m-2.d-1                                                      

 IPWTH   YEAR DOY = 1975  71
 Warning: SRAD < 1 MJ.m-2.d-1.                                                 
 C:\DSSAT48\Weather\RORO7501.WTH                                               
 Line       76                                                                 
 SRAD =   0.50 MJ.m-2.d-1                                                      

 IPWTH   YEAR DOY = 1975  72
 Warning: SRAD < 1 MJ.m-2.d-1.                                                 
 C:\DSSAT48\Weather\RORO7501.WTH                                               
 Line       77                                                                 
 SRAD =   0.80 MJ.m-2.d-1                                                      

 IPWTH   YEAR DOY = 1975  79
 Warning: SRAD < 1 MJ.m-2.d-1.                                                 
 C:\DSSAT48\Weather\RORO7501.WTH                                               
 Line       84                                                                 
 SRAD =   0.80 MJ.m-2.d-1                                                      

******************************************************************************

*DSSAT Cropping System Model Ver. 4.8.2.010 -develop  JUL 08, 2024 16:11:18

*RUN   5        : 120 KG N/HA               CSCER048 RORO7401    5
 MODEL          : CSCER048 - Wheat
 EXPERIMENT     : RORO7401 WH N RESPONSE,ROTHAMSTED  8FE(N)  (DSSAT3)
 DATA PATH      : C:\DSSAT48\Wheat\
 TREATMENT  5   : 120 KG N/HA               CSCER048
  

 IPSOIL  YEAR DOY =    0   0
 Saturated hydraulic conductivity equal to zero for one or more soil layers.   
 Data will be treated as missing.                                              

 IPWTH   YEAR DOY = 1974 305
 Value of TAMP, amplitude of soil temperature function, is missing.            
 A default value of  5.0°C is being used for this simulation,                 
 which may produce inaccurate results.                                         

 WTHINIT  YEAR DOY = 1974 305
 Warning: SRAD < 1 MJ.m-2.d-1.                                                 
 C:\DSSAT48\Weather\RORO7401.WTH                                               
 Line      219                                                                 
 SRAD =   0.80 MJ.m-2.d-1                                                      

 IPWTH   YEAR DOY = 1974 305
 Warning: SRAD < 1 MJ.m-2.d-1.                                                 
 C:\DSSAT48\Weather\RORO7401.WTH                                               
 Line        6                                                                 
 SRAD =   0.80 MJ.m-2.d-1                                                      

 IPWTH   YEAR DOY = 1974 317
 Warning: SRAD < 1 MJ.m-2.d-1.                                                 
 C:\DSSAT48\Weather\RORO7401.WTH                                               
 Line       18                                                                 
 SRAD =   0.50 MJ.m-2.d-1                                                      

 IPWTH   YEAR DOY = 1974 322
 Warning: SRAD < 1 MJ.m-2.d-1.                                                 
 C:\DSSAT48\Weather\RORO7401.WTH                                               
 Line       23                                                                 
 SRAD =   0.70 MJ.m-2.d-1                                                      

 IPWTH   YEAR DOY = 1974 324
 Warning: SRAD < 1 MJ.m-2.d-1.                                                 
 C:\DSSAT48\Weather\RORO7401.WTH                                               
 Line       25                                                                 
 SRAD =   0.20 MJ.m-2.d-1                                                      

 IPWTH   YEAR DOY = 1974 326
 Warning: SRAD < 1 MJ.m-2.d-1.                                                 
 C:\DSSAT48\Weather\RORO7401.WTH                                               
 Line       27                                                                 
 SRAD =   0.80 MJ.m-2.d-1                                                      

 IPWTH   YEAR DOY = 1974 328
 Warning: SRAD < 1 MJ.m-2.d-1.                                                 
 C:\DSSAT48\Weather\RORO7401.WTH                                               
 Line       29                                                                 
 SRAD =   0.90 MJ.m-2.d-1                                                      

 IPWTH   YEAR DOY = 1974 331
 Warning: SRAD < 1 MJ.m-2.d-1.                                                 
 C:\DSSAT48\Weather\RORO7401.WTH                                               
 Line       32                                                                 
 SRAD =   0.90 MJ.m-2.d-1                                                      

 IPWTH   YEAR DOY = 1974 337
 Warning: SRAD < 1 MJ.m-2.d-1.                                                 
 C:\DSSAT48\Weather\RORO7401.WTH                                               
 Line       38                                                                 
 SRAD =   0.80 MJ.m-2.d-1                                                      

 IPWTH   YEAR DOY = 1974 342
 Warning: SRAD < 1 MJ.m-2.d-1.                                                 
 C:\DSSAT48\Weather\RORO7401.WTH                                               
 Line       43                                                                 
 SRAD =   0.40 MJ.m-2.d-1                                                      

 IPWTH   YEAR DOY = 1974 346
 Warning: SRAD < 1 MJ.m-2.d-1.                                                 
 C:\DSSAT48\Weather\RORO7401.WTH                                               
 Line       47                                                                 
 SRAD =   0.30 MJ.m-2.d-1                                                      

 IPWTH   YEAR DOY = 1974 350
 Warning: SRAD < 1 MJ.m-2.d-1.                                                 
 C:\DSSAT48\Weather\RORO7401.WTH                                               
 Line       51                                                                 
 SRAD =   0.20 MJ.m-2.d-1                                                      

 IPWTH   YEAR DOY = 1974 353
 Warning: SRAD < 1 MJ.m-2.d-1.                                                 
 C:\DSSAT48\Weather\RORO7401.WTH                                               
 Line       54                                                                 
 SRAD =   0.90 MJ.m-2.d-1                                                      

 IPWTH   YEAR DOY = 1974 355
 Warning: SRAD < 1 MJ.m-2.d-1.                                                 
 C:\DSSAT48\Weather\RORO7401.WTH                                               
 Line       56                                                                 
 SRAD =   0.30 MJ.m-2.d-1                                                      

 IPWTH   YEAR DOY = 1974 359
 Warning: SRAD < 1 MJ.m-2.d-1.                                                 
 C:\DSSAT48\Weather\RORO7401.WTH                                               
 Line       60                                                                 
 SRAD =   0.20 MJ.m-2.d-1                                                      

 IPWTH   YEAR DOY = 1975   1
 Warning: SRAD < 1 MJ.m-2.d-1.                                                 
 C:\DSSAT48\Weather\RORO7501.WTH                                               
 Line        6                                                                 
 SRAD =   0.80 MJ.m-2.d-1                                                      

 IPWTH   YEAR DOY = 1975   2
 Warning: SRAD < 1 MJ.m-2.d-1.                                                 
 C:\DSSAT48\Weather\RORO7501.WTH                                               
 Line        7                                                                 
 SRAD =   0.80 MJ.m-2.d-1                                                      

 IPWTH   YEAR DOY = 1975   6
 Warning: SRAD < 1 MJ.m-2.d-1.                                                 
 C:\DSSAT48\Weather\RORO7501.WTH                                               
 Line       11                                                                 
 SRAD =   0.40 MJ.m-2.d-1                                                      

 IPWTH   YEAR DOY = 1975   8
 Warning: SRAD < 1 MJ.m-2.d-1.                                                 
 C:\DSSAT48\Weather\RORO7501.WTH                                               
 Line       13                                                                 
 SRAD =   0.90 MJ.m-2.d-1                                                      

 IPWTH   YEAR DOY = 1975   9
 Warning: SRAD < 1 MJ.m-2.d-1.                                                 
 C:\DSSAT48\Weather\RORO7501.WTH                                               
 Line       14                                                                 
 SRAD =   0.40 MJ.m-2.d-1                                                      

 IPWTH   YEAR DOY = 1975  10
 Warning: SRAD < 1 MJ.m-2.d-1.                                                 
 C:\DSSAT48\Weather\RORO7501.WTH                                               
 Line       15                                                                 
 SRAD =   0.30 MJ.m-2.d-1                                                      

 IPWTH   YEAR DOY = 1975  12
 Warning: SRAD < 1 MJ.m-2.d-1.                                                 
 C:\DSSAT48\Weather\RORO7501.WTH                                               
 Line       17                                                                 
 SRAD =   0.50 MJ.m-2.d-1                                                      

 IPWTH   YEAR DOY = 1975  18
 Warning: SRAD < 1 MJ.m-2.d-1.                                                 
 C:\DSSAT48\Weather\RORO7501.WTH                                               
 Line       23                                                                 
 SRAD =   0.30 MJ.m-2.d-1                                                      

 IPWTH   YEAR DOY = 1975  22
 Warning: SRAD < 1 MJ.m-2.d-1.                                                 
 C:\DSSAT48\Weather\RORO7501.WTH                                               
 Line       27                                                                 
 SRAD =   0.20 MJ.m-2.d-1                                                      

 IPWTH   YEAR DOY = 1975  27
 Warning: SRAD < 1 MJ.m-2.d-1.                                                 
 C:\DSSAT48\Weather\RORO7501.WTH                                               
 Line       32                                                                 
 SRAD =   0.50 MJ.m-2.d-1                                                      

 IPWTH   YEAR DOY = 1975  28
 Warning: SRAD < 1 MJ.m-2.d-1.                                                 
 C:\DSSAT48\Weather\RORO7501.WTH                                               
 Line       33                                                                 
 SRAD =   0.30 MJ.m-2.d-1                                                      

 IPWTH   YEAR DOY = 1975  29
 Warning: SRAD < 1 MJ.m-2.d-1.                                                 
 C:\DSSAT48\Weather\RORO7501.WTH                                               
 Line       34                                                                 
 SRAD =   0.80 MJ.m-2.d-1                                                      

 IPWTH   YEAR DOY = 1975  71
 Warning: SRAD < 1 MJ.m-2.d-1.                                                 
 C:\DSSAT48\Weather\RORO7501.WTH                                               
 Line       76                                                                 
 SRAD =   0.50 MJ.m-2.d-1                                                      

 IPWTH   YEAR DOY = 1975  72
 Warning: SRAD < 1 MJ.m-2.d-1.                                                 
 C:\DSSAT48\Weather\RORO7501.WTH                                               
 Line       77                                                                 
 SRAD =   0.80 MJ.m-2.d-1                                                      

 IPWTH   YEAR DOY = 1975  79
 Warning: SRAD < 1 MJ.m-2.d-1.                                                 
 C:\DSSAT48\Weather\RORO7501.WTH                                               
 Line       84                                                                 
 SRAD =   0.80 MJ.m-2.d-1                                                      

******************************************************************************

*DSSAT Cropping System Model Ver. 4.8.2.010 -develop  JUL 08, 2024 16:11:18

*RUN   6        : 150 KG N/HA               CSCER048 RORO7401    6
 MODEL          : CSCER048 - Wheat
 EXPERIMENT     : RORO7401 WH N RESPONSE,ROTHAMSTED  8FE(N)  (DSSAT3)
 DATA PATH      : C:\DSSAT48\Wheat\
 TREATMENT  6   : 150 KG N/HA               CSCER048
  

 IPSOIL  YEAR DOY =    0   0
 Saturated hydraulic conductivity equal to zero for one or more soil layers.   
 Data will be treated as missing.                                              

 IPWTH   YEAR DOY = 1974 305
 Value of TAMP, amplitude of soil temperature function, is missing.            
 A default value of  5.0°C is being used for this simulation,                 
 which may produce inaccurate results.                                         

 WTHINIT  YEAR DOY = 1974 305
 Warning: SRAD < 1 MJ.m-2.d-1.                                                 
 C:\DSSAT48\Weather\RORO7401.WTH                                               
 Line      219                                                                 
 SRAD =   0.80 MJ.m-2.d-1                                                      

 IPWTH   YEAR DOY = 1974 305
 Warning: SRAD < 1 MJ.m-2.d-1.                                                 
 C:\DSSAT48\Weather\RORO7401.WTH                                               
 Line        6                                                                 
 SRAD =   0.80 MJ.m-2.d-1                                                      

 IPWTH   YEAR DOY = 1974 317
 Warning: SRAD < 1 MJ.m-2.d-1.                                                 
 C:\DSSAT48\Weather\RORO7401.WTH                                               
 Line       18                                                                 
 SRAD =   0.50 MJ.m-2.d-1                                                      

 IPWTH   YEAR DOY = 1974 322
 Warning: SRAD < 1 MJ.m-2.d-1.                                                 
 C:\DSSAT48\Weather\RORO7401.WTH                                               
 Line       23                                                                 
 SRAD =   0.70 MJ.m-2.d-1                                                      

 IPWTH   YEAR DOY = 1974 324
 Warning: SRAD < 1 MJ.m-2.d-1.                                                 
 C:\DSSAT48\Weather\RORO7401.WTH                                               
 Line       25                                                                 
 SRAD =   0.20 MJ.m-2.d-1                                                      

 IPWTH   YEAR DOY = 1974 326
 Warning: SRAD < 1 MJ.m-2.d-1.                                                 
 C:\DSSAT48\Weather\RORO7401.WTH                                               
 Line       27                                                                 
 SRAD =   0.80 MJ.m-2.d-1                                                      

 IPWTH   YEAR DOY = 1974 328
 Warning: SRAD < 1 MJ.m-2.d-1.                                                 
 C:\DSSAT48\Weather\RORO7401.WTH                                               
 Line       29                                                                 
 SRAD =   0.90 MJ.m-2.d-1                                                      

 IPWTH   YEAR DOY = 1974 331
 Warning: SRAD < 1 MJ.m-2.d-1.                                                 
 C:\DSSAT48\Weather\RORO7401.WTH                                               
 Line       32                                                                 
 SRAD =   0.90 MJ.m-2.d-1                                                      

 IPWTH   YEAR DOY = 1974 337
 Warning: SRAD < 1 MJ.m-2.d-1.                                                 
 C:\DSSAT48\Weather\RORO7401.WTH                                               
 Line       38                                                                 
 SRAD =   0.80 MJ.m-2.d-1                                                      

 IPWTH   YEAR DOY = 1974 342
 Warning: SRAD < 1 MJ.m-2.d-1.                                                 
 C:\DSSAT48\Weather\RORO7401.WTH                                               
 Line       43                                                                 
 SRAD =   0.40 MJ.m-2.d-1                                                      

 IPWTH   YEAR DOY = 1974 346
 Warning: SRAD < 1 MJ.m-2.d-1.                                                 
 C:\DSSAT48\Weather\RORO7401.WTH                                               
 Line       47                                                                 
 SRAD =   0.30 MJ.m-2.d-1                                                      

 IPWTH   YEAR DOY = 1974 350
 Warning: SRAD < 1 MJ.m-2.d-1.                                                 
 C:\DSSAT48\Weather\RORO7401.WTH                                               
 Line       51                                                                 
 SRAD =   0.20 MJ.m-2.d-1                                                      

 IPWTH   YEAR DOY = 1974 353
 Warning: SRAD < 1 MJ.m-2.d-1.                                                 
 C:\DSSAT48\Weather\RORO7401.WTH                                               
 Line       54                                                                 
 SRAD =   0.90 MJ.m-2.d-1                                                      

 IPWTH   YEAR DOY = 1974 355
 Warning: SRAD < 1 MJ.m-2.d-1.                                                 
 C:\DSSAT48\Weather\RORO7401.WTH                                               
 Line       56                                                                 
 SRAD =   0.30 MJ.m-2.d-1                                                      

 IPWTH   YEAR DOY = 1974 359
 Warning: SRAD < 1 MJ.m-2.d-1.                                                 
 C:\DSSAT48\Weather\RORO7401.WTH                                               
 Line       60                                                                 
 SRAD =   0.20 MJ.m-2.d-1                                                      

 IPWTH   YEAR DOY = 1975   1
 Warning: SRAD < 1 MJ.m-2.d-1.                                                 
 C:\DSSAT48\Weather\RORO7501.WTH                                               
 Line        6                                                                 
 SRAD =   0.80 MJ.m-2.d-1                                                      

 IPWTH   YEAR DOY = 1975   2
 Warning: SRAD < 1 MJ.m-2.d-1.                                                 
 C:\DSSAT48\Weather\RORO7501.WTH                                               
 Line        7                                                                 
 SRAD =   0.80 MJ.m-2.d-1                                                      

 IPWTH   YEAR DOY = 1975   6
 Warning: SRAD < 1 MJ.m-2.d-1.                                                 
 C:\DSSAT48\Weather\RORO7501.WTH                                               
 Line       11                                                                 
 SRAD =   0.40 MJ.m-2.d-1                                                      

 IPWTH   YEAR DOY = 1975   8
 Warning: SRAD < 1 MJ.m-2.d-1.                                                 
 C:\DSSAT48\Weather\RORO7501.WTH                                               
 Line       13                                                                 
 SRAD =   0.90 MJ.m-2.d-1                                                      

 IPWTH   YEAR DOY = 1975   9
 Warning: SRAD < 1 MJ.m-2.d-1.                                                 
 C:\DSSAT48\Weather\RORO7501.WTH                                               
 Line       14                                                                 
 SRAD =   0.40 MJ.m-2.d-1                                                      

 IPWTH   YEAR DOY = 1975  10
 Warning: SRAD < 1 MJ.m-2.d-1.                                                 
 C:\DSSAT48\Weather\RORO7501.WTH                                               
 Line       15                                                                 
 SRAD =   0.30 MJ.m-2.d-1                                                      

 IPWTH   YEAR DOY = 1975  12
 Warning: SRAD < 1 MJ.m-2.d-1.                                                 
 C:\DSSAT48\Weather\RORO7501.WTH                                               
 Line       17                                                                 
 SRAD =   0.50 MJ.m-2.d-1                                                      

 IPWTH   YEAR DOY = 1975  18
 Warning: SRAD < 1 MJ.m-2.d-1.                                                 
 C:\DSSAT48\Weather\RORO7501.WTH                                               
 Line       23                                                                 
 SRAD =   0.30 MJ.m-2.d-1                                                      

 IPWTH   YEAR DOY = 1975  22
 Warning: SRAD < 1 MJ.m-2.d-1.                                                 
 C:\DSSAT48\Weather\RORO7501.WTH                                               
 Line       27                                                                 
 SRAD =   0.20 MJ.m-2.d-1                                                      

 IPWTH   YEAR DOY = 1975  27
 Warning: SRAD < 1 MJ.m-2.d-1.                                                 
 C:\DSSAT48\Weather\RORO7501.WTH                                               
 Line       32                                                                 
 SRAD =   0.50 MJ.m-2.d-1                                                      

 IPWTH   YEAR DOY = 1975  28
 Warning: SRAD < 1 MJ.m-2.d-1.                                                 
 C:\DSSAT48\Weather\RORO7501.WTH                                               
 Line       33                                                                 
 SRAD =   0.30 MJ.m-2.d-1                                                      

 IPWTH   YEAR DOY = 1975  29
 Warning: SRAD < 1 MJ.m-2.d-1.                                                 
 C:\DSSAT48\Weather\RORO7501.WTH                                               
 Line       34                                                                 
 SRAD =   0.80 MJ.m-2.d-1                                                      

 IPWTH   YEAR DOY = 1975  71
 Warning: SRAD < 1 MJ.m-2.d-1.                                                 
 C:\DSSAT48\Weather\RORO7501.WTH                                               
 Line       76                                                                 
 SRAD =   0.50 MJ.m-2.d-1                                                      

 IPWTH   YEAR DOY = 1975  72
 Warning: SRAD < 1 MJ.m-2.d-1.                                                 
 C:\DSSAT48\Weather\RORO7501.WTH                                               
 Line       77                                                                 
 SRAD =   0.80 MJ.m-2.d-1                                                      

 IPWTH   YEAR DOY = 1975  79
 Warning: SRAD < 1 MJ.m-2.d-1.                                                 
 C:\DSSAT48\Weather\RORO7501.WTH                                               
 Line       84                                                                 
 SRAD =   0.80 MJ.m-2.d-1                                                      

******************************************************************************

*DSSAT Cropping System Model Ver. 4.8.2.010 -develop  JUL 08, 2024 16:11:18

*RUN   7        : 180 KG N/HA               CSCER048 RORO7401    7
 MODEL          : CSCER048 - Wheat
 EXPERIMENT     : RORO7401 WH N RESPONSE,ROTHAMSTED  8FE(N)  (DSSAT3)
 DATA PATH      : C:\DSSAT48\Wheat\
 TREATMENT  7   : 180 KG N/HA               CSCER048
  

 IPSOIL  YEAR DOY =    0   0
 Saturated hydraulic conductivity equal to zero for one or more soil layers.   
 Data will be treated as missing.                                              

 IPWTH   YEAR DOY = 1974 305
 Value of TAMP, amplitude of soil temperature function, is missing.            
 A default value of  5.0°C is being used for this simulation,                 
 which may produce inaccurate results.                                         

 WTHINIT  YEAR DOY = 1974 305
 Warning: SRAD < 1 MJ.m-2.d-1.                                                 
 C:\DSSAT48\Weather\RORO7401.WTH                                               
 Line      219                                                                 
 SRAD =   0.80 MJ.m-2.d-1                                                      

 IPWTH   YEAR DOY = 1974 305
 Warning: SRAD < 1 MJ.m-2.d-1.                                                 
 C:\DSSAT48\Weather\RORO7401.WTH                                               
 Line        6                                                                 
 SRAD =   0.80 MJ.m-2.d-1                                                      

 IPWTH   YEAR DOY = 1974 317
 Warning: SRAD < 1 MJ.m-2.d-1.                                                 
 C:\DSSAT48\Weather\RORO7401.WTH                                               
 Line       18                                                                 
 SRAD =   0.50 MJ.m-2.d-1                                                      

 IPWTH   YEAR DOY = 1974 322
 Warning: SRAD < 1 MJ.m-2.d-1.                                                 
 C:\DSSAT48\Weather\RORO7401.WTH                                               
 Line       23                                                                 
 SRAD =   0.70 MJ.m-2.d-1                                                      

 IPWTH   YEAR DOY = 1974 324
 Warning: SRAD < 1 MJ.m-2.d-1.                                                 
 C:\DSSAT48\Weather\RORO7401.WTH                                               
 Line       25                                                                 
 SRAD =   0.20 MJ.m-2.d-1                                                      

 IPWTH   YEAR DOY = 1974 326
 Warning: SRAD < 1 MJ.m-2.d-1.                                                 
 C:\DSSAT48\Weather\RORO7401.WTH                                               
 Line       27                                                                 
 SRAD =   0.80 MJ.m-2.d-1                                                      

 IPWTH   YEAR DOY = 1974 328
 Warning: SRAD < 1 MJ.m-2.d-1.                                                 
 C:\DSSAT48\Weather\RORO7401.WTH                                               
 Line       29                                                                 
 SRAD =   0.90 MJ.m-2.d-1                                                      

 IPWTH   YEAR DOY = 1974 331
 Warning: SRAD < 1 MJ.m-2.d-1.                                                 
 C:\DSSAT48\Weather\RORO7401.WTH                                               
 Line       32                                                                 
 SRAD =   0.90 MJ.m-2.d-1                                                      

 IPWTH   YEAR DOY = 1974 337
 Warning: SRAD < 1 MJ.m-2.d-1.                                                 
 C:\DSSAT48\Weather\RORO7401.WTH                                               
 Line       38                                                                 
 SRAD =   0.80 MJ.m-2.d-1                                                      

 IPWTH   YEAR DOY = 1974 342
 Warning: SRAD < 1 MJ.m-2.d-1.                                                 
 C:\DSSAT48\Weather\RORO7401.WTH                                               
 Line       43                                                                 
 SRAD =   0.40 MJ.m-2.d-1                                                      

 IPWTH   YEAR DOY = 1974 346
 Warning: SRAD < 1 MJ.m-2.d-1.                                                 
 C:\DSSAT48\Weather\RORO7401.WTH                                               
 Line       47                                                                 
 SRAD =   0.30 MJ.m-2.d-1                                                      

 IPWTH   YEAR DOY = 1974 350
 Warning: SRAD < 1 MJ.m-2.d-1.                                                 
 C:\DSSAT48\Weather\RORO7401.WTH                                               
 Line       51                                                                 
 SRAD =   0.20 MJ.m-2.d-1                                                      

 IPWTH   YEAR DOY = 1974 353
 Warning: SRAD < 1 MJ.m-2.d-1.                                                 
 C:\DSSAT48\Weather\RORO7401.WTH                                               
 Line       54                                                                 
 SRAD =   0.90 MJ.m-2.d-1                                                      

 IPWTH   YEAR DOY = 1974 355
 Warning: SRAD < 1 MJ.m-2.d-1.                                                 
 C:\DSSAT48\Weather\RORO7401.WTH                                               
 Line       56                                                                 
 SRAD =   0.30 MJ.m-2.d-1                                                      

 IPWTH   YEAR DOY = 1974 359
 Warning: SRAD < 1 MJ.m-2.d-1.                                                 
 C:\DSSAT48\Weather\RORO7401.WTH                                               
 Line       60                                                                 
 SRAD =   0.20 MJ.m-2.d-1                                                      

 IPWTH   YEAR DOY = 1975   1
 Warning: SRAD < 1 MJ.m-2.d-1.                                                 
 C:\DSSAT48\Weather\RORO7501.WTH                                               
 Line        6                                                                 
 SRAD =   0.80 MJ.m-2.d-1                                                      

 IPWTH   YEAR DOY = 1975   2
 Warning: SRAD < 1 MJ.m-2.d-1.                                                 
 C:\DSSAT48\Weather\RORO7501.WTH                                               
 Line        7                                                                 
 SRAD =   0.80 MJ.m-2.d-1                                                      

 IPWTH   YEAR DOY = 1975   6
 Warning: SRAD < 1 MJ.m-2.d-1.                                                 
 C:\DSSAT48\Weather\RORO7501.WTH                                               
 Line       11                                                                 
 SRAD =   0.40 MJ.m-2.d-1                                                      

 IPWTH   YEAR DOY = 1975   8
 Warning: SRAD < 1 MJ.m-2.d-1.                                                 
 C:\DSSAT48\Weather\RORO7501.WTH                                               
 Line       13                                                                 
 SRAD =   0.90 MJ.m-2.d-1                                                      

 IPWTH   YEAR DOY = 1975   9
 Warning: SRAD < 1 MJ.m-2.d-1.                                                 
 C:\DSSAT48\Weather\RORO7501.WTH                                               
 Line       14                                                                 
 SRAD =   0.40 MJ.m-2.d-1                                                      

 IPWTH   YEAR DOY = 1975  10
 Warning: SRAD < 1 MJ.m-2.d-1.                                                 
 C:\DSSAT48\Weather\RORO7501.WTH                                               
 Line       15                                                                 
 SRAD =   0.30 MJ.m-2.d-1                                                      

 IPWTH   YEAR DOY = 1975  12
 Warning: SRAD < 1 MJ.m-2.d-1.                                                 
 C:\DSSAT48\Weather\RORO7501.WTH                                               
 Line       17                                                                 
 SRAD =   0.50 MJ.m-2.d-1                                                      

 IPWTH   YEAR DOY = 1975  18
 Warning: SRAD < 1 MJ.m-2.d-1.                                                 
 C:\DSSAT48\Weather\RORO7501.WTH                                               
 Line       23                                                                 
 SRAD =   0.30 MJ.m-2.d-1                                                      

 IPWTH   YEAR DOY = 1975  22
 Warning: SRAD < 1 MJ.m-2.d-1.                                                 
 C:\DSSAT48\Weather\RORO7501.WTH                                               
 Line       27                                                                 
 SRAD =   0.20 MJ.m-2.d-1                                                      

 IPWTH   YEAR DOY = 1975  27
 Warning: SRAD < 1 MJ.m-2.d-1.                                                 
 C:\DSSAT48\Weather\RORO7501.WTH                                               
 Line       32                                                                 
 SRAD =   0.50 MJ.m-2.d-1                                                      

 IPWTH   YEAR DOY = 1975  28
 Warning: SRAD < 1 MJ.m-2.d-1.                                                 
 C:\DSSAT48\Weather\RORO7501.WTH                                               
 Line       33                                                                 
 SRAD =   0.30 MJ.m-2.d-1                                                      

 IPWTH   YEAR DOY = 1975  29
 Warning: SRAD < 1 MJ.m-2.d-1.                                                 
 C:\DSSAT48\Weather\RORO7501.WTH                                               
 Line       34                                                                 
 SRAD =   0.80 MJ.m-2.d-1                                                      

 IPWTH   YEAR DOY = 1975  71
 Warning: SRAD < 1 MJ.m-2.d-1.                                                 
 C:\DSSAT48\Weather\RORO7501.WTH                                               
 Line       76                                                                 
 SRAD =   0.50 MJ.m-2.d-1                                                      

 IPWTH   YEAR DOY = 1975  72
 Warning: SRAD < 1 MJ.m-2.d-1.                                                 
 C:\DSSAT48\Weather\RORO7501.WTH                                               
 Line       77                                                                 
 SRAD =   0.80 MJ.m-2.d-1                                                      

 IPWTH   YEAR DOY = 1975  79
 Warning: SRAD < 1 MJ.m-2.d-1.                                                 
 C:\DSSAT48\Weather\RORO7501.WTH                                               
 Line       84                                                                 
 SRAD =   0.80 MJ.m-2.d-1                                                      

******************************************************************************

*DSSAT Cropping System Model Ver. 4.8.2.010 -develop  JUL 08, 2024 16:11:19

*RUN   8        : 210 KG N/HA               CSCER048 RORO7401    8
 MODEL          : CSCER048 - Wheat
 EXPERIMENT     : RORO7401 WH N RESPONSE,ROTHAMSTED  8FE(N)  (DSSAT3)
 DATA PATH      : C:\DSSAT48\Wheat\
 TREATMENT  8   : 210 KG N/HA               CSCER048
  

 IPSOIL  YEAR DOY =    0   0
 Saturated hydraulic conductivity equal to zero for one or more soil layers.   
 Data will be treated as missing.                                              

 IPWTH   YEAR DOY = 1974 305
 Value of TAMP, amplitude of soil temperature function, is missing.            
 A default value of  5.0°C is being used for this simulation,                 
 which may produce inaccurate results.                                         

 WTHINIT  YEAR DOY = 1974 305
 Warning: SRAD < 1 MJ.m-2.d-1.                                                 
 C:\DSSAT48\Weather\RORO7401.WTH                                               
 Line      219                                                                 
 SRAD =   0.80 MJ.m-2.d-1                                                      

 IPWTH   YEAR DOY = 1974 305
 Warning: SRAD < 1 MJ.m-2.d-1.                                                 
 C:\DSSAT48\Weather\RORO7401.WTH                                               
 Line        6                                                                 
 SRAD =   0.80 MJ.m-2.d-1                                                      

 IPWTH   YEAR DOY = 1974 317
 Warning: SRAD < 1 MJ.m-2.d-1.                                                 
 C:\DSSAT48\Weather\RORO7401.WTH                                               
 Line       18                                                                 
 SRAD =   0.50 MJ.m-2.d-1                                                      

 IPWTH   YEAR DOY = 1974 322
 Warning: SRAD < 1 MJ.m-2.d-1.                                                 
 C:\DSSAT48\Weather\RORO7401.WTH                                               
 Line       23                                                                 
 SRAD =   0.70 MJ.m-2.d-1                                                      

 IPWTH   YEAR DOY = 1974 324
 Warning: SRAD < 1 MJ.m-2.d-1.                                                 
 C:\DSSAT48\Weather\RORO7401.WTH                                               
 Line       25                                                                 
 SRAD =   0.20 MJ.m-2.d-1                                                      

 IPWTH   YEAR DOY = 1974 326
 Warning: SRAD < 1 MJ.m-2.d-1.                                                 
 C:\DSSAT48\Weather\RORO7401.WTH                                               
 Line       27                                                                 
 SRAD =   0.80 MJ.m-2.d-1                                                      

 IPWTH   YEAR DOY = 1974 328
 Warning: SRAD < 1 MJ.m-2.d-1.                                                 
 C:\DSSAT48\Weather\RORO7401.WTH                                               
 Line       29                                                                 
 SRAD =   0.90 MJ.m-2.d-1                                                      

 IPWTH   YEAR DOY = 1974 331
 Warning: SRAD < 1 MJ.m-2.d-1.                                                 
 C:\DSSAT48\Weather\RORO7401.WTH                                               
 Line       32                                                                 
 SRAD =   0.90 MJ.m-2.d-1                                                      

 IPWTH   YEAR DOY = 1974 337
 Warning: SRAD < 1 MJ.m-2.d-1.                                                 
 C:\DSSAT48\Weather\RORO7401.WTH                                               
 Line       38                                                                 
 SRAD =   0.80 MJ.m-2.d-1                                                      

 IPWTH   YEAR DOY = 1974 342
 Warning: SRAD < 1 MJ.m-2.d-1.                                                 
 C:\DSSAT48\Weather\RORO7401.WTH                                               
 Line       43                                                                 
 SRAD =   0.40 MJ.m-2.d-1                                                      

 IPWTH   YEAR DOY = 1974 346
 Warning: SRAD < 1 MJ.m-2.d-1.                                                 
 C:\DSSAT48\Weather\RORO7401.WTH                                               
 Line       47                                                                 
 SRAD =   0.30 MJ.m-2.d-1                                                      

 IPWTH   YEAR DOY = 1974 350
 Warning: SRAD < 1 MJ.m-2.d-1.                                                 
 C:\DSSAT48\Weather\RORO7401.WTH                                               
 Line       51                                                                 
 SRAD =   0.20 MJ.m-2.d-1                                                      

 IPWTH   YEAR DOY = 1974 353
 Warning: SRAD < 1 MJ.m-2.d-1.                                                 
 C:\DSSAT48\Weather\RORO7401.WTH                                               
 Line       54                                                                 
 SRAD =   0.90 MJ.m-2.d-1                                                      

 IPWTH   YEAR DOY = 1974 355
 Warning: SRAD < 1 MJ.m-2.d-1.                                                 
 C:\DSSAT48\Weather\RORO7401.WTH                                               
 Line       56                                                                 
 SRAD =   0.30 MJ.m-2.d-1                                                      

 IPWTH   YEAR DOY = 1974 359
 Warning: SRAD < 1 MJ.m-2.d-1.                                                 
 C:\DSSAT48\Weather\RORO7401.WTH                                               
 Line       60                                                                 
 SRAD =   0.20 MJ.m-2.d-1                                                      

 IPWTH   YEAR DOY = 1975   1
 Warning: SRAD < 1 MJ.m-2.d-1.                                                 
 C:\DSSAT48\Weather\RORO7501.WTH                                               
 Line        6                                                                 
 SRAD =   0.80 MJ.m-2.d-1                                                      

 IPWTH   YEAR DOY = 1975   2
 Warning: SRAD < 1 MJ.m-2.d-1.                                                 
 C:\DSSAT48\Weather\RORO7501.WTH                                               
 Line        7                                                                 
 SRAD =   0.80 MJ.m-2.d-1                                                      

 IPWTH   YEAR DOY = 1975   6
 Warning: SRAD < 1 MJ.m-2.d-1.                                                 
 C:\DSSAT48\Weather\RORO7501.WTH                                               
 Line       11                                                                 
 SRAD =   0.40 MJ.m-2.d-1                                                      

 IPWTH   YEAR DOY = 1975   8
 Warning: SRAD < 1 MJ.m-2.d-1.                                                 
 C:\DSSAT48\Weather\RORO7501.WTH                                               
 Line       13                                                                 
 SRAD =   0.90 MJ.m-2.d-1                                                      

 IPWTH   YEAR DOY = 1975   9
 Warning: SRAD < 1 MJ.m-2.d-1.                                                 
 C:\DSSAT48\Weather\RORO7501.WTH                                               
 Line       14                                                                 
 SRAD =   0.40 MJ.m-2.d-1                                                      

 IPWTH   YEAR DOY = 1975  10
 Warning: SRAD < 1 MJ.m-2.d-1.                                                 
 C:\DSSAT48\Weather\RORO7501.WTH                                               
 Line       15                                                                 
 SRAD =   0.30 MJ.m-2.d-1                                                      

 IPWTH   YEAR DOY = 1975  12
 Warning: SRAD < 1 MJ.m-2.d-1.                                                 
 C:\DSSAT48\Weather\RORO7501.WTH                                               
 Line       17                                                                 
 SRAD =   0.50 MJ.m-2.d-1                                                      

 IPWTH   YEAR DOY = 1975  18
 Warning: SRAD < 1 MJ.m-2.d-1.                                                 
 C:\DSSAT48\Weather\RORO7501.WTH                                               
 Line       23                                                                 
 SRAD =   0.30 MJ.m-2.d-1                                                      

 IPWTH   YEAR DOY = 1975  22
 Warning: SRAD < 1 MJ.m-2.d-1.                                                 
 C:\DSSAT48\Weather\RORO7501.WTH                                               
 Line       27                                                                 
 SRAD =   0.20 MJ.m-2.d-1                                                      

 IPWTH   YEAR DOY = 1975  27
 Warning: SRAD < 1 MJ.m-2.d-1.                                                 
 C:\DSSAT48\Weather\RORO7501.WTH                                               
 Line       32                                                                 
 SRAD =   0.50 MJ.m-2.d-1                                                      

 IPWTH   YEAR DOY = 1975  28
 Warning: SRAD < 1 MJ.m-2.d-1.                                                 
 C:\DSSAT48\Weather\RORO7501.WTH                                               
 Line       33                                                                 
 SRAD =   0.30 MJ.m-2.d-1                                                      

 IPWTH   YEAR DOY = 1975  29
 Warning: SRAD < 1 MJ.m-2.d-1.                                                 
 C:\DSSAT48\Weather\RORO7501.WTH                                               
 Line       34                                                                 
 SRAD =   0.80 MJ.m-2.d-1                                                      

 IPWTH   YEAR DOY = 1975  71
 Warning: SRAD < 1 MJ.m-2.d-1.                                                 
 C:\DSSAT48\Weather\RORO7501.WTH                                               
 Line       76                                                                 
 SRAD =   0.50 MJ.m-2.d-1                                                      

 IPWTH   YEAR DOY = 1975  72
 Warning: SRAD < 1 MJ.m-2.d-1.                                                 
 C:\DSSAT48\Weather\RORO7501.WTH                                               
 Line       77                                                                 
 SRAD =   0.80 MJ.m-2.d-1                                                      

 IPWTH   YEAR DOY = 1975  79
 Warning: SRAD < 1 MJ.m-2.d-1.                                                 
 C:\DSSAT48\Weather\RORO7501.WTH                                               
 Line       84                                                                 
 SRAD =   0.80 MJ.m-2.d-1                                                      
