*SOIL WATER BY LAYER DAILY OUTPUT FILE

*DSSAT Cropping System Model Ver. 4.8.5.020 develop  JUL 07, 2025 12:51:46

!----------------------------
! Variable Descriptions (unit)
!----------------------------
!YEAR    Year of current date of simulation (YYYY)
!DOY     Day of year (d)
!DAS     Days after start of simulation (d)
!LL#D    Volumetric soil water content at Lower Limit in soil layer # (cm3 [water] / cm3 [soil])
!DUL#D   Volumetric soil water content at Drained Upper Limit in soil layer # (cm3[water]/cm3[soil])
!SAT#D   Volumetric soil water content at Saturation in soil layer # (cm3 [water] / cm3 [soil])
!BD#D    Bulk density in soil layer # (g [soil] / cm3 [soil])
!SW#D    Volumetric soil water content in soil layer #  (cm3 [water] / cm3 [soil])

!                    0-5    5-15   15-25   25-35   35-45   45-55   55-65   65-95  95-125 125-155     0-5    5-15   15-25   25-35   35-45   45-55   55-65   65-95  95-125 125-155     0-5    5-15   15-25   25-35   35-45   45-55   55-65   65-95  95-125 125-155     0-5    5-15   15-25   25-35   35-45   45-55   55-65   65-95  95-125 125-155     0-5    5-15   15-25   25-35   35-45   45-55   55-65   65-95  95-125 125-155
@YEAR DOY   DAS     LL1D    LL2D    LL3D    LL4D    LL5D    LL6D    LL7D    LL8D    LL9D   LL10D   DUL1D   DUL2D   DUL3D   DUL4D   DUL5D   DUL6D   DUL7D   DUL8D   DUL9D  DUL10D   SAT1D   SAT2D   SAT3D   SAT4D   SAT5D   SAT6D   SAT7D   SAT8D   SAT9D  SAT10D    BD1D    BD2D    BD3D    BD4D    BD5D    BD6D    BD7D    BD8D    BD9D   BD10D    SW1D    SW2D    SW3D    SW4D    SW5D    SW6D    SW7D    SW8D    SW9D   SW10D
 1974 305     1   0.1100  0.1300  0.1500  0.2200  0.2200  0.2200  0.2200  0.2200  0.2200  0.2200  0.2800  0.3000  0.3200  0.3700  0.3700  0.3700  0.3700  0.3700  0.3700  0.3700  0.3300  0.3750  0.4200  0.4200  0.4200  0.4200  0.4200  0.4200  0.4200  0.4200  1.1000  1.1500  1.2000  1.2500  1.2500  1.2500  1.2500  1.2500  1.2500  1.2500  1.5859  0.3335  0.3301  0.3299  0.3289  0.3222  0.3127  0.3294  0.3359  0.3312
 1974 306     2   0.1100  0.1300  0.1500  0.2200  0.2200  0.2200  0.2200  0.2200  0.2200  0.2200  0.2800  0.3000  0.3200  0.3700  0.3700  0.3700  0.3700  0.3700  0.3700  0.3700  0.3300  0.3750  0.4200  0.4200  0.4200  0.4200  0.4200  0.4200  0.4200  0.4200  1.1000  1.1500  1.2000  1.2500  1.2500  1.2500  1.2500  1.2500  1.2500  1.2500  2.7250  0.3370  0.3306  0.3297  0.3266  0.3150  0.3022  0.3291  0.3396  0.3320
 1974 307     3   0.1100  0.1300  0.1500  0.2200  0.2200  0.2200  0.2200  0.2200  0.2200  0.2200  0.2800  0.3000  0.3200  0.3700  0.3700  0.3700  0.3700  0.3700  0.3700  0.3700  0.3300  0.3750  0.4200  0.4200  0.4200  0.4200  0.4200  0.4200  0.4200  0.4200  1.1000  1.1500  1.2000  1.2500  1.2500  1.2500  1.2500  1.2500  1.2500  1.2500  3.7650  0.3626  0.3407  0.3302  0.3234  0.3089  0.2958  0.3288  0.3421  0.3326
 1974 308     4   0.1100  0.1300  0.1500  0.2200  0.2200  0.2200  0.2200  0.2200  0.2200  0.2200  0.2800  0.3000  0.3200  0.3700  0.3700  0.3700  0.3700  0.3700  0.3700  0.3700  0.3300  0.3750  0.4200  0.4200  0.4200  0.4200  0.4200  0.4200  0.4200  0.4200  1.1000  1.1500  1.2000  1.2500  1.2500  1.2500  1.2500  1.2500  1.2500  1.2500  4.7710  0.3640  0.3459  0.3311  0.3199  0.3036  0.2911  0.3287  0.3441  0.3330
 1974 309     5   0.1100  0.1300  0.1500  0.2200  0.2200  0.2200  0.2200  0.2200  0.2200  0.2200  0.2800  0.3000  0.3200  0.3700  0.3700  0.3700  0.3700  0.3700  0.3700  0.3700  0.3300  0.3750  0.4200  0.4200  0.4200  0.4200  0.4200  0.4200  0.4200  0.4200  1.1000  1.1500  1.2000  1.2500  1.2500  1.2500  1.2500  1.2500  1.2500  1.2500  5.7406  0.3631  0.3487  0.3318  0.3164  0.2991  0.2875  0.3286  0.3459  0.3333
 1974 310     6   0.1100  0.1300  0.1500  0.2200  0.2200  0.2200  0.2200  0.2200  0.2200  0.2200  0.2800  0.3000  0.3200  0.3700  0.3700  0.3700  0.3700  0.3700  0.3700  0.3700  0.3300  0.3750  0.4200  0.4200  0.4200  0.4200  0.4200  0.4200  0.4200  0.4200  1.1000  1.1500  1.2000  1.2500  1.2500  1.2500  1.2500  1.2500  1.2500  1.2500  6.6739  0.3644  0.3514  0.3322  0.3130  0.2954  0.2846  0.3287  0.3475  0.3336
 1974 311     7   0.1100  0.1300  0.1500  0.2200  0.2200  0.2200  0.2200  0.2200  0.2200  0.2200  0.2800  0.3000  0.3200  0.3700  0.3700  0.3700  0.3700  0.3700  0.3700  0.3700  0.3300  0.3750  0.4200  0.4200  0.4200  0.4200  0.4200  0.4200  0.4200  0.4200  1.1000  1.1500  1.2000  1.2500  1.2500  1.2500  1.2500  1.2500  1.2500  1.2500  7.5722  0.3723  0.3568  0.3331  0.3097  0.2922  0.2824  0.3288  0.3489  0.3338
 1974 312     8   0.1100  0.1300  0.1500  0.2200  0.2200  0.2200  0.2200  0.2200  0.2200  0.2200  0.2800  0.3000  0.3200  0.3700  0.3700  0.3700  0.3700  0.3700  0.3700  0.3700  0.3300  0.3750  0.4200  0.4200  0.4200  0.4200  0.4200  0.4200  0.4200  0.4200  1.1000  1.1500  1.2000  1.2500  1.2500  1.2500  1.2500  1.2500  1.2500  1.2500  8.4330  0.3732  0.3606  0.3339  0.3066  0.2894  0.2805  0.3289  0.3502  0.3340
 1974 313     9   0.1100  0.1300  0.1500  0.2200  0.2200  0.2200  0.2200  0.2200  0.2200  0.2200  0.2800  0.3000  0.3200  0.3700  0.3700  0.3700  0.3700  0.3700  0.3700  0.3700  0.3300  0.3750  0.4200  0.4200  0.4200  0.4200  0.4200  0.4200  0.4200  0.4200  1.1000  1.1500  1.2000  1.2500  1.2500  1.2500  1.2500  1.2500  1.2500  1.2500  9.2362  0.3868  0.3704  0.3367  0.3040  0.2869  0.2790  0.3291  0.3514  0.3341
 1974 314    10   0.1100  0.1300  0.1500  0.2200  0.2200  0.2200  0.2200  0.2200  0.2200  0.2200  0.2800  0.3000  0.3200  0.3700  0.3700  0.3700  0.3700  0.3700  0.3700  0.3700  0.3300  0.3750  0.4200  0.4200  0.4200  0.4200  0.4200  0.4200  0.4200  0.4200  1.1000  1.1500  1.2000  1.2500  1.2500  1.2500  1.2500  1.2500  1.2500  1.2500  9.9527  0.4147  0.3953  0.3487  0.3040  0.2843  0.2775  0.3292  0.3525  0.3342
 1974 315    11   0.1100  0.1300  0.1500  0.2200  0.2200  0.2200  0.2200  0.2200  0.2200  0.2200  0.2800  0.3000  0.3200  0.3700  0.3700  0.3700  0.3700  0.3700  0.3700  0.3700  0.3300  0.3750  0.4200  0.4200  0.4200  0.4200  0.4200  0.4200  0.4200  0.4200  1.1000  1.1500  1.2000  1.2500  1.2500  1.2500  1.2500  1.2500  1.2500  1.2500 10.6231  0.4381  0.4241  0.3727  0.3113  0.2810  0.2759  0.3293  0.3536  0.3343
 1974 316    12   0.1100  0.1300  0.1500  0.2200  0.2200  0.2200  0.2200  0.2200  0.2200  0.2200  0.2800  0.3000  0.3200  0.3700  0.3700  0.3700  0.3700  0.3700  0.3700  0.3700  0.3300  0.3750  0.4200  0.4200  0.4200  0.4200  0.4200  0.4200  0.4200  0.4200  1.1000  1.1500  1.2000  1.2500  1.2500  1.2500  1.2500  1.2500  1.2500  1.2500 11.2971  0.4297  0.4275  0.3851  0.3190  0.2798  0.2739  0.3294  0.3545  0.3344
 1974 317    13   0.1100  0.1300  0.1500  0.2200  0.2200  0.2200  0.2200  0.2200  0.2200  0.2200  0.2800  0.3000  0.3200  0.3700  0.3700  0.3700  0.3700  0.3700  0.3700  0.3700  0.3300  0.3750  0.4200  0.4200  0.4200  0.4200  0.4200  0.4200  0.4200  0.4200  1.1000  1.1500  1.2000  1.2500  1.2500  1.2500  1.2500  1.2500  1.2500  1.2500 11.5406  0.5238  0.5318  0.4847  0.4030  0.3326  0.2946  0.3305  0.3550  0.3343
 1974 318    14   0.1100  0.1300  0.1500  0.2200  0.2200  0.2200  0.2200  0.2200  0.2200  0.2200  0.2800  0.3000  0.3200  0.3700  0.3700  0.3700  0.3700  0.3700  0.3700  0.3700  0.3300  0.3750  0.4200  0.4200  0.4200  0.4200  0.4200  0.4200  0.4200  0.4200  1.1000  1.1500  1.2000  1.2500  1.2500  1.2500  1.2500  1.2500  1.2500  1.2500 12.0089  0.5158  0.5349  0.5025  0.4346  0.3710  0.3402  0.3395  0.3556  0.3340
 1974 319    15   0.1100  0.1300  0.1500  0.2200  0.2200  0.2200  0.2200  0.2200  0.2200  0.2200  0.2800  0.3000  0.3200  0.3700  0.3700  0.3700  0.3700  0.3700  0.3700  0.3700  0.3300  0.3750  0.4200  0.4200  0.4200  0.4200  0.4200  0.4200  0.4200  0.4200  1.1000  1.1500  1.2000  1.2500  1.2500  1.2500  1.2500  1.2500  1.2500  1.2500 12.5206  0.5063  0.5283  0.5022  0.4420  0.3865  0.3746  0.3510  0.3590  0.3333
 1974 320    16   0.1100  0.1300  0.1500  0.2200  0.2200  0.2200  0.2200  0.2200  0.2200  0.2200  0.2800  0.3000  0.3200  0.3700  0.3700  0.3700  0.3700  0.3700  0.3700  0.3700  0.3300  0.3750  0.4200  0.4200  0.4200  0.4200  0.4200  0.4200  0.4200  0.4200  1.1000  1.1500  1.2000  1.2500  1.2500  1.2500  1.2500  1.2500  1.2500  1.2500 13.0268  0.5017  0.5245  0.5008  0.4442  0.3936  0.3950  0.3612  0.3647  0.3333
 1974 321    17   0.1100  0.1300  0.1500  0.2200  0.2200  0.2200  0.2200  0.2200  0.2200  0.2200  0.2800  0.3000  0.3200  0.3700  0.3700  0.3700  0.3700  0.3700  0.3700  0.3700  0.3300  0.3750  0.4200  0.4200  0.4200  0.4200  0.4200  0.4200  0.4200  0.4200  1.1000  1.1500  1.2000  1.2500  1.2500  1.2500  1.2500  1.2500  1.2500  1.2500 12.9555  0.5557  0.5853  0.5610  0.5043  0.4535  0.4829  0.4026  0.3941  0.3416
 1974 322    18   0.1100  0.1300  0.1500  0.2200  0.2200  0.2200  0.2200  0.2200  0.2200  0.2200  0.2800  0.3000  0.3200  0.3700  0.3700  0.3700  0.3700  0.3700  0.3700  0.3700  0.3300  0.3750  0.4200  0.4200  0.4200  0.4200  0.4200  0.4200  0.4200  0.4200  1.1000  1.1500  1.2000  1.2500  1.2500  1.2500  1.2500  1.2500  1.2500  1.2500 13.3603  0.5292  0.5606  0.5421  0.4916  0.4479  0.4900  0.4169  0.4167  0.3566
 1974 323    19   0.1100  0.1300  0.1500  0.2200  0.2200  0.2200  0.2200  0.2200  0.2200  0.2200  0.2800  0.3000  0.3200  0.3700  0.3700  0.3700  0.3700  0.3700  0.3700  0.3700  0.3300  0.3750  0.4200  0.4200  0.4200  0.4200  0.4200  0.4200  0.4200  0.4200  1.1000  1.1500  1.2000  1.2500  1.2500  1.2500  1.2500  1.2500  1.2500  1.2500 13.7002  0.5283  0.5579  0.5388  0.4886  0.4462  0.4916  0.4232  0.4308  0.3725
 1974 324    20   0.1100  0.1300  0.1500  0.2200  0.2200  0.2200  0.2200  0.2200  0.2200  0.2200  0.2800  0.3000  0.3200  0.3700  0.3700  0.3700  0.3700  0.3700  0.3700  0.3700  0.3300  0.3750  0.4200  0.4200  0.4200  0.4200  0.4200  0.4200  0.4200  0.4200  1.1000  1.1500  1.2000  1.2500  1.2500  1.2500  1.2500  1.2500  1.2500  1.2500 14.0044  0.5321  0.5617  0.5420  0.4915  0.4492  0.4970  0.4285  0.4414  0.3874
 1974 325    21   0.1100  0.1300  0.1500  0.2200  0.2200  0.2200  0.2200  0.2200  0.2200  0.2200  0.2800  0.3000  0.3200  0.3700  0.3700  0.3700  0.3700  0.3700  0.3700  0.3700  0.3300  0.3750  0.4200  0.4200  0.4200  0.4200  0.4200  0.4200  0.4200  0.4200  1.1000  1.1500  1.2000  1.2500  1.2500  1.2500  1.2500  1.2500  1.2500  1.2500 14.1476  0.5455  0.5763  0.5560  0.5050  0.4621  0.5158  0.4392  0.4557  0.4052
 1974 326    22   0.1100  0.1300  0.1500  0.2200  0.2200  0.2200  0.2200  0.2200  0.2200  0.2200  0.2800  0.3000  0.3200  0.3700  0.3700  0.3700  0.3700  0.3700  0.3700  0.3700  0.3300  0.3750  0.4200  0.4200  0.4200  0.4200  0.4200  0.4200  0.4200  0.4200  1.1000  1.1500  1.2000  1.2500  1.2500  1.2500  1.2500  1.2500  1.2500  1.2500 14.5274  0.5177  0.5508  0.5357  0.4889  0.4498  0.5034  0.4365  0.4581  0.4148
 1974 327    23   0.1100  0.1300  0.1500  0.2200  0.2200  0.2200  0.2200  0.2200  0.2200  0.2200  0.2800  0.3000  0.3200  0.3700  0.3700  0.3700  0.3700  0.3700  0.3700  0.3700  0.3300  0.3750  0.4200  0.4200  0.4200  0.4200  0.4200  0.4200  0.4200  0.4200  1.1000  1.1500  1.2000  1.2500  1.2500  1.2500  1.2500  1.2500  1.2500  1.2500 14.8926  0.5042  0.5360  0.5220  0.4765  0.4388  0.4895  0.4312  0.4556  0.4177
 1974 328    24   0.1100  0.1300  0.1500  0.2200  0.2200  0.2200  0.2200  0.2200  0.2200  0.2200  0.2800  0.3000  0.3200  0.3700  0.3700  0.3700  0.3700  0.3700  0.3700  0.3700  0.3300  0.3750  0.4200  0.4200  0.4200  0.4200  0.4200  0.4200  0.4200  0.4200  1.1000  1.1500  1.2000  1.2500  1.2500  1.2500  1.2500  1.2500  1.2500  1.2500 15.2142  0.5008  0.5302  0.5152  0.4693  0.4316  0.4792  0.4265  0.4520  0.4175
 1974 329    25   0.1100  0.1300  0.1500  0.2200  0.2200  0.2200  0.2200  0.2200  0.2200  0.2200  0.2800  0.3000  0.3200  0.3700  0.3700  0.3700  0.3700  0.3700  0.3700  0.3700  0.3300  0.3750  0.4200  0.4200  0.4200  0.4200  0.4200  0.4200  0.4200  0.4200  1.1000  1.1500  1.2000  1.2500  1.2500  1.2500  1.2500  1.2500  1.2500  1.2500 15.5120  0.4913  0.5211  0.5072  0.4620  0.4248  0.4698  0.4221  0.4482  0.4157
 1974 330    26   0.1100  0.1300  0.1500  0.2200  0.2200  0.2200  0.2200  0.2200  0.2200  0.2200  0.2800  0.3000  0.3200  0.3700  0.3700  0.3700  0.3700  0.3700  0.3700  0.3700  0.3300  0.3750  0.4200  0.4200  0.4200  0.4200  0.4200  0.4200  0.4200  0.4200  1.1000  1.1500  1.2000  1.2500  1.2500  1.2500  1.2500  1.2500  1.2500  1.2500 15.7827  0.4868  0.5154  0.5013  0.4562  0.4192  0.4618  0.4181  0.4444  0.4133
 1974 331    27   0.1100  0.1300  0.1500  0.2200  0.2200  0.2200  0.2200  0.2200  0.2200  0.2200  0.2800  0.3000  0.3200  0.3700  0.3700  0.3700  0.3700  0.3700  0.3700  0.3700  0.3300  0.3750  0.4200  0.4200  0.4200  0.4200  0.4200  0.4200  0.4200  0.4200  1.1000  1.1500  1.2000  1.2500  1.2500  1.2500  1.2500  1.2500  1.2500  1.2500 16.0236  0.4861  0.5132  0.4981  0.4524  0.4151  0.4555  0.4148  0.4410  0.4106
 1974 332    28   0.1100  0.1300  0.1500  0.2200  0.2200  0.2200  0.2200  0.2200  0.2200  0.2200  0.2800  0.3000  0.3200  0.3700  0.3700  0.3700  0.3700  0.3700  0.3700  0.3700  0.3300  0.3750  0.4200  0.4200  0.4200  0.4200  0.4200  0.4200  0.4200  0.4200  1.1000  1.1500  1.2000  1.2500  1.2500  1.2500  1.2500  1.2500  1.2500  1.2500 16.2231  0.4902  0.5156  0.4987  0.4516  0.4134  0.4518  0.4124  0.4381  0.4081
 1974 333    29   0.1100  0.1300  0.1500  0.2200  0.2200  0.2200  0.2200  0.2200  0.2200  0.2200  0.2800  0.3000  0.3200  0.3700  0.3700  0.3700  0.3700  0.3700  0.3700  0.3700  0.3300  0.3750  0.4200  0.4200  0.4200  0.4200  0.4200  0.4200  0.4200  0.4200  1.1000  1.1500  1.2000  1.2500  1.2500  1.2500  1.2500  1.2500  1.2500  1.2500 16.3812  0.4974  0.5220  0.5031  0.4543  0.4146  0.4515  0.4113  0.4362  0.4061
 1974 334    30   0.1100  0.1300  0.1500  0.2200  0.2200  0.2200  0.2200  0.2200  0.2200  0.2200  0.2800  0.3000  0.3200  0.3700  0.3700  0.3700  0.3700  0.3700  0.3700  0.3700  0.3300  0.3750  0.4200  0.4200  0.4200  0.4200  0.4200  0.4200  0.4200  0.4200  1.1000  1.1500  1.2000  1.2500  1.2500  1.2500  1.2500  1.2500  1.2500  1.2500 16.5732  0.4867  0.5143  0.4984  0.4513  0.4125  0.4492  0.4100  0.4346  0.4043
 1974 335    31   0.1100  0.1300  0.1500  0.2200  0.2200  0.2200  0.2200  0.2200  0.2200  0.2200  0.2800  0.3000  0.3200  0.3700  0.3700  0.3700  0.3700  0.3700  0.3700  0.3700  0.3300  0.3750  0.4200  0.4200  0.4200  0.4200  0.4200  0.4200  0.4200  0.4200  1.1000  1.1500  1.2000  1.2500  1.2500  1.2500  1.2500  1.2500  1.2500  1.2500 16.7623  0.4807  0.5082  0.4933  0.4472  0.4092  0.4453  0.4083  0.4328  0.4025
 1974 336    32   0.1100  0.1300  0.1500  0.2200  0.2200  0.2200  0.2200  0.2200  0.2200  0.2200  0.2800  0.3000  0.3200  0.3700  0.3700  0.3700  0.3700  0.3700  0.3700  0.3700  0.3300  0.3750  0.4200  0.4200  0.4200  0.4200  0.4200  0.4200  0.4200  0.4200  1.1000  1.1500  1.2000  1.2500  1.2500  1.2500  1.2500  1.2500  1.2500  1.2500 16.9478  0.4754  0.5027  0.4885  0.4431  0.4056  0.4407  0.4062  0.4308  0.4007
 1974 337    33   0.1100  0.1300  0.1500  0.2200  0.2200  0.2200  0.2200  0.2200  0.2200  0.2200  0.2800  0.3000  0.3200  0.3700  0.3700  0.3700  0.3700  0.3700  0.3700  0.3700  0.3300  0.3750  0.4200  0.4200  0.4200  0.4200  0.4200  0.4200  0.4200  0.4200  1.1000  1.1500  1.2000  1.2500  1.2500  1.2500  1.2500  1.2500  1.2500  1.2500 17.1308  0.4713  0.4982  0.4843  0.4392  0.4021  0.4360  0.4040  0.4286  0.3988
 1974 338    34   0.1100  0.1300  0.1500  0.2200  0.2200  0.2200  0.2200  0.2200  0.2200  0.2200  0.2800  0.3000  0.3200  0.3700  0.3700  0.3700  0.3700  0.3700  0.3700  0.3700  0.3300  0.3750  0.4200  0.4200  0.4200  0.4200  0.4200  0.4200  0.4200  0.4200  1.1000  1.1500  1.2000  1.2500  1.2500  1.2500  1.2500  1.2500  1.2500  1.2500 17.3052  0.4679  0.4944  0.4806  0.4357  0.3988  0.4315  0.4019  0.4265  0.3968
 1974 339    35   0.1100  0.1300  0.1500  0.2200  0.2200  0.2200  0.2200  0.2200  0.2200  0.2200  0.2800  0.3000  0.3200  0.3700  0.3700  0.3700  0.3700  0.3700  0.3700  0.3700  0.3300  0.3750  0.4200  0.4200  0.4200  0.4200  0.4200  0.4200  0.4200  0.4200  1.1000  1.1500  1.2000  1.2500  1.2500  1.2500  1.2500  1.2500  1.2500  1.2500 17.4773  0.4649  0.4910  0.4773  0.4325  0.3957  0.4272  0.3997  0.4243  0.3948
 1974 340    36   0.1100  0.1300  0.1500  0.2200  0.2200  0.2200  0.2200  0.2200  0.2200  0.2200  0.2800  0.3000  0.3200  0.3700  0.3700  0.3700  0.3700  0.3700  0.3700  0.3700  0.3300  0.3750  0.4200  0.4200  0.4200  0.4200  0.4200  0.4200  0.4200  0.4200  1.1000  1.1500  1.2000  1.2500  1.2500  1.2500  1.2500  1.2500  1.2500  1.2500 17.6484  0.4624  0.4881  0.4744  0.4296  0.3929  0.4232  0.3977  0.4221  0.3927
 1974 341    37   0.1100  0.1300  0.1500  0.2200  0.2200  0.2200  0.2200  0.2200  0.2200  0.2200  0.2800  0.3000  0.3200  0.3700  0.3700  0.3700  0.3700  0.3700  0.3700  0.3700  0.3300  0.3750  0.4200  0.4200  0.4200  0.4200  0.4200  0.4200  0.4200  0.4200  1.1000  1.1500  1.2000  1.2500  1.2500  1.2500  1.2500  1.2500  1.2500  1.2500 17.8180  0.4601  0.4855  0.4718  0.4270  0.3904  0.4195  0.3958  0.4200  0.3907
 1974 342    38   0.1100  0.1300  0.1500  0.2200  0.2200  0.2200  0.2200  0.2200  0.2200  0.2200  0.2800  0.3000  0.3200  0.3700  0.3700  0.3700  0.3700  0.3700  0.3700  0.3700  0.3300  0.3750  0.4200  0.4200  0.4200  0.4200  0.4200  0.4200  0.4200  0.4200  1.1000  1.1500  1.2000  1.2500  1.2500  1.2500  1.2500  1.2500  1.2500  1.2500 17.9842  0.4609  0.4849  0.4704  0.4252  0.3883  0.4162  0.3940  0.4181  0.3887
 1974 343    39   0.1100  0.1300  0.1500  0.2200  0.2200  0.2200  0.2200  0.2200  0.2200  0.2200  0.2800  0.3000  0.3200  0.3700  0.3700  0.3700  0.3700  0.3700  0.3700  0.3700  0.3300  0.3750  0.4200  0.4200  0.4200  0.4200  0.4200  0.4200  0.4200  0.4200  1.1000  1.1500  1.2000  1.2500  1.2500  1.2500  1.2500  1.2500  1.2500  1.2500 18.1459  0.4590  0.4832  0.4687  0.4234  0.3865  0.4133  0.3924  0.4162  0.3868
 1974 344    40   0.1100  0.1300  0.1500  0.2200  0.2200  0.2200  0.2200  0.2200  0.2200  0.2200  0.2800  0.3000  0.3200  0.3700  0.3700  0.3700  0.3700  0.3700  0.3700  0.3700  0.3300  0.3750  0.4200  0.4200  0.4200  0.4200  0.4200  0.4200  0.4200  0.4200  1.1000  1.1500  1.2000  1.2500  1.2500  1.2500  1.2500  1.2500  1.2500  1.2500 18.2032  0.4926  0.5104  0.4864  0.4342  0.3924  0.4168  0.3924  0.4151  0.3852
 1974 345    41   0.1100  0.1300  0.1500  0.2200  0.2200  0.2200  0.2200  0.2200  0.2200  0.2200  0.2800  0.3000  0.3200  0.3700  0.3700  0.3700  0.3700  0.3700  0.3700  0.3700  0.3300  0.3750  0.4200  0.4200  0.4200  0.4200  0.4200  0.4200  0.4200  0.4200  1.1000  1.1500  1.2000  1.2500  1.2500  1.2500  1.2500  1.2500  1.2500  1.2500 18.2890  0.4951  0.5170  0.4948  0.4424  0.3993  0.4238  0.3941  0.4150  0.3840
 1974 346    42   0.1100  0.1300  0.1500  0.2200  0.2200  0.2200  0.2200  0.2200  0.2200  0.2200  0.2800  0.3000  0.3200  0.3700  0.3700  0.3700  0.3700  0.3700  0.3700  0.3700  0.3300  0.3750  0.4200  0.4200  0.4200  0.4200  0.4200  0.4200  0.4200  0.4200  1.1000  1.1500  1.2000  1.2500  1.2500  1.2500  1.2500  1.2500  1.2500  1.2500 18.3684  0.5002  0.5235  0.5018  0.4496  0.4060  0.4324  0.3970  0.4162  0.3837
 1974 347    43   0.1100  0.1300  0.1500  0.2200  0.2200  0.2200  0.2200  0.2200  0.2200  0.2200  0.2800  0.3000  0.3200  0.3700  0.3700  0.3700  0.3700  0.3700  0.3700  0.3700  0.3300  0.3750  0.4200  0.4200  0.4200  0.4200  0.4200  0.4200  0.4200  0.4200  1.1000  1.1500  1.2000  1.2500  1.2500  1.2500  1.2500  1.2500  1.2500  1.2500 18.4960  0.4869  0.5138  0.4964  0.4473  0.4061  0.4350  0.3987  0.4176  0.3839
 1974 348    44   0.1100  0.1300  0.1500  0.2200  0.2200  0.2200  0.2200  0.2200  0.2200  0.2200  0.2800  0.3000  0.3200  0.3700  0.3700  0.3700  0.3700  0.3700  0.3700  0.3700  0.3300  0.3750  0.4200  0.4200  0.4200  0.4200  0.4200  0.4200  0.4200  0.4200  1.1000  1.1500  1.2000  1.2500  1.2500  1.2500  1.2500  1.2500  1.2500  1.2500 18.6298  0.4802  0.5070  0.4911  0.4436  0.4038  0.4339  0.3990  0.4183  0.3842
 1974 349    45   0.1100  0.1300  0.1500  0.2200  0.2200  0.2200  0.2200  0.2200  0.2200  0.2200  0.2800  0.3000  0.3200  0.3700  0.3700  0.3700  0.3700  0.3700  0.3700  0.3700  0.3300  0.3750  0.4200  0.4200  0.4200  0.4200  0.4200  0.4200  0.4200  0.4200  1.1000  1.1500  1.2000  1.2500  1.2500  1.2500  1.2500  1.2500  1.2500  1.2500 18.7636  0.4746  0.5013  0.4862  0.4397  0.4009  0.4312  0.3985  0.4184  0.3843
 1974 350    46   0.1100  0.1300  0.1500  0.2200  0.2200  0.2200  0.2200  0.2200  0.2200  0.2200  0.2800  0.3000  0.3200  0.3700  0.3700  0.3700  0.3700  0.3700  0.3700  0.3700  0.3300  0.3750  0.4200  0.4200  0.4200  0.4200  0.4200  0.4200  0.4200  0.4200  1.1000  1.1500  1.2000  1.2500  1.2500  1.2500  1.2500  1.2500  1.2500  1.2500 18.8811  0.4797  0.5036  0.4864  0.4388  0.3996  0.4293  0.3978  0.4181  0.3842
 1974 351    47   0.1100  0.1300  0.1500  0.2200  0.2200  0.2200  0.2200  0.2200  0.2200  0.2200  0.2800  0.3000  0.3200  0.3700  0.3700  0.3700  0.3700  0.3700  0.3700  0.3700  0.3300  0.3750  0.4200  0.4200  0.4200  0.4200  0.4200  0.4200  0.4200  0.4200  1.1000  1.1500  1.2000  1.2500  1.2500  1.2500  1.2500  1.2500  1.2500  1.2500 19.0068  0.4732  0.4990  0.4833  0.4364  0.3977  0.4270  0.3969  0.4176  0.3839
 1974 352    48   0.1100  0.1300  0.1500  0.2200  0.2200  0.2200  0.2200  0.2200  0.2200  0.2200  0.2800  0.3000  0.3200  0.3700  0.3700  0.3700  0.3700  0.3700  0.3700  0.3700  0.3300  0.3750  0.4200  0.4200  0.4200  0.4200  0.4200  0.4200  0.4200  0.4200  1.1000  1.1500  1.2000  1.2500  1.2500  1.2500  1.2500  1.2500  1.2500  1.2500 19.1368  0.4689  0.4948  0.4798  0.4336  0.3954  0.4242  0.3958  0.4168  0.3834
 1974 353    49   0.1100  0.1300  0.1500  0.2200  0.2200  0.2200  0.2200  0.2200  0.2200  0.2200  0.2800  0.3000  0.3200  0.3700  0.3700  0.3700  0.3700  0.3700  0.3700  0.3700  0.3300  0.3750  0.4200  0.4200  0.4200  0.4200  0.4200  0.4200  0.4200  0.4200  1.1000  1.1500  1.2000  1.2500  1.2500  1.2500  1.2500  1.2500  1.2500  1.2500 19.2692  0.4651  0.4909  0.4764  0.4307  0.3928  0.4210  0.3946  0.4158  0.3828
 1974 354    50   0.1100  0.1300  0.1500  0.2200  0.2200  0.2200  0.2200  0.2200  0.2200  0.2200  0.2800  0.3000  0.3200  0.3700  0.3700  0.3700  0.3700  0.3700  0.3700  0.3700  0.3300  0.3750  0.4200  0.4200  0.4200  0.4200  0.4200  0.4200  0.4200  0.4200  1.1000  1.1500  1.2000  1.2500  1.2500  1.2500  1.2500  1.2500  1.2500  1.2500 19.3984  0.4620  0.4875  0.4733  0.4279  0.3903  0.4178  0.3932  0.4146  0.3819
 1974 355    51   0.1100  0.1300  0.1500  0.2200  0.2200  0.2200  0.2200  0.2200  0.2200  0.2200  0.2800  0.3000  0.3200  0.3700  0.3700  0.3700  0.3700  0.3700  0.3700  0.3700  0.3300  0.3750  0.4200  0.4200  0.4200  0.4200  0.4200  0.4200  0.4200  0.4200  1.1000  1.1500  1.2000  1.2500  1.2500  1.2500  1.2500  1.2500  1.2500  1.2500 19.5066  0.4700  0.4919  0.4748  0.4278  0.3894  0.4158  0.3920  0.4135  0.3810
 1974 356    52   0.1100  0.1300  0.1500  0.2200  0.2200  0.2200  0.2200  0.2200  0.2200  0.2200  0.2800  0.3000  0.3200  0.3700  0.3700  0.3700  0.3700  0.3700  0.3700  0.3700  0.3300  0.3750  0.4200  0.4200  0.4200  0.4200  0.4200  0.4200  0.4200  0.4200  1.1000  1.1500  1.2000  1.2500  1.2500  1.2500  1.2500  1.2500  1.2500  1.2500 19.6043  0.4737  0.4956  0.4773  0.4291  0.3898  0.4151  0.3913  0.4125  0.3800
 1974 357    53   0.1100  0.1300  0.1500  0.2200  0.2200  0.2200  0.2200  0.2200  0.2200  0.2200  0.2800  0.3000  0.3200  0.3700  0.3700  0.3700  0.3700  0.3700  0.3700  0.3700  0.3300  0.3750  0.4200  0.4200  0.4200  0.4200  0.4200  0.4200  0.4200  0.4200  1.1000  1.1500  1.2000  1.2500  1.2500  1.2500  1.2500  1.2500  1.2500  1.2500 19.7103  0.4697  0.4935  0.4765  0.4288  0.3895  0.4145  0.3907  0.4116  0.3791
 1974 358    54   0.1100  0.1300  0.1500  0.2200  0.2200  0.2200  0.2200  0.2200  0.2200  0.2200  0.2800  0.3000  0.3200  0.3700  0.3700  0.3700  0.3700  0.3700  0.3700  0.3700  0.3300  0.3750  0.4200  0.4200  0.4200  0.4200  0.4200  0.4200  0.4200  0.4200  1.1000  1.1500  1.2000  1.2500  1.2500  1.2500  1.2500  1.2500  1.2500  1.2500 19.8153  0.4689  0.4925  0.4756  0.4281  0.3890  0.4137  0.3902  0.4109  0.3783
 1974 359    55   0.1100  0.1300  0.1500  0.2200  0.2200  0.2200  0.2200  0.2200  0.2200  0.2200  0.2800  0.3000  0.3200  0.3700  0.3700  0.3700  0.3700  0.3700  0.3700  0.3700  0.3300  0.3750  0.4200  0.4200  0.4200  0.4200  0.4200  0.4200  0.4200  0.4200  1.1000  1.1500  1.2000  1.2500  1.2500  1.2500  1.2500  1.2500  1.2500  1.2500 19.8846  0.4826  0.5031  0.4824  0.4323  0.3914  0.4154  0.3903  0.4105  0.3775
 1974 360    56   0.1100  0.1300  0.1500  0.2200  0.2200  0.2200  0.2200  0.2200  0.2200  0.2200  0.2800  0.3000  0.3200  0.3700  0.3700  0.3700  0.3700  0.3700  0.3700  0.3700  0.3300  0.3750  0.4200  0.4200  0.4200  0.4200  0.4200  0.4200  0.4200  0.4200  1.1000  1.1500  1.2000  1.2500  1.2500  1.2500  1.2500  1.2500  1.2500  1.2500 19.8497  0.5093  0.5305  0.5054  0.4505  0.4050  0.4285  0.3940  0.4118  0.3775
 1974 361    57   0.1100  0.1300  0.1500  0.2200  0.2200  0.2200  0.2200  0.2200  0.2200  0.2200  0.2800  0.3000  0.3200  0.3700  0.3700  0.3700  0.3700  0.3700  0.3700  0.3700  0.3300  0.3750  0.4200  0.4200  0.4200  0.4200  0.4200  0.4200  0.4200  0.4200  1.1000  1.1500  1.2000  1.2500  1.2500  1.2500  1.2500  1.2500  1.2500  1.2500 19.9306  0.4924  0.5193  0.5007  0.4502  0.4075  0.4347  0.3970  0.4139  0.3782
 1974 362    58   0.1100  0.1300  0.1500  0.2200  0.2200  0.2200  0.2200  0.2200  0.2200  0.2200  0.2800  0.3000  0.3200  0.3700  0.3700  0.3700  0.3700  0.3700  0.3700  0.3700  0.3300  0.3750  0.4200  0.4200  0.4200  0.4200  0.4200  0.4200  0.4200  0.4200  1.1000  1.1500  1.2000  1.2500  1.2500  1.2500  1.2500  1.2500  1.2500  1.2500 20.0256  0.4830  0.5105  0.4943  0.4462  0.4056  0.4350  0.3982  0.4155  0.3791
 1974 363    59   0.1100  0.1300  0.1500  0.2200  0.2200  0.2200  0.2200  0.2200  0.2200  0.2200  0.2800  0.3000  0.3200  0.3700  0.3700  0.3700  0.3700  0.3700  0.3700  0.3700  0.3300  0.3750  0.4200  0.4200  0.4200  0.4200  0.4200  0.4200  0.4200  0.4200  1.1000  1.1500  1.2000  1.2500  1.2500  1.2500  1.2500  1.2500  1.2500  1.2500 20.1251  0.4765  0.5038  0.4886  0.4418  0.4025  0.4326  0.3981  0.4163  0.3799
 1974 364    60   0.1100  0.1300  0.1500  0.2200  0.2200  0.2200  0.2200  0.2200  0.2200  0.2200  0.2800  0.3000  0.3200  0.3700  0.3700  0.3700  0.3700  0.3700  0.3700  0.3700  0.3300  0.3750  0.4200  0.4200  0.4200  0.4200  0.4200  0.4200  0.4200  0.4200  1.1000  1.1500  1.2000  1.2500  1.2500  1.2500  1.2500  1.2500  1.2500  1.2500 20.2225  0.4712  0.4982  0.4837  0.4376  0.3992  0.4291  0.3972  0.4163  0.3804
 1974 365    61   0.1100  0.1300  0.1500  0.2200  0.2200  0.2200  0.2200  0.2200  0.2200  0.2200  0.2800  0.3000  0.3200  0.3700  0.3700  0.3700  0.3700  0.3700  0.3700  0.3700  0.3300  0.3750  0.4200  0.4200  0.4200  0.4200  0.4200  0.4200  0.4200  0.4200  1.1000  1.1500  1.2000  1.2500  1.2500  1.2500  1.2500  1.2500  1.2500  1.2500 20.3245  0.4671  0.4937  0.4796  0.4339  0.3960  0.4253  0.3959  0.4158  0.3805
 1975 001    62   0.1100  0.1300  0.1500  0.2200  0.2200  0.2200  0.2200  0.2200  0.2200  0.2200  0.2800  0.3000  0.3200  0.3700  0.3700  0.3700  0.3700  0.3700  0.3700  0.3700  0.3300  0.3750  0.4200  0.4200  0.4200  0.4200  0.4200  0.4200  0.4200  0.4200  1.1000  1.1500  1.2000  1.2500  1.2500  1.2500  1.2500  1.2500  1.2500  1.2500 20.4081  0.4720  0.4957  0.4794  0.4327  0.3943  0.4225  0.3948  0.4150  0.3803
 1975 002    63   0.1100  0.1300  0.1500  0.2200  0.2200  0.2200  0.2200  0.2200  0.2200  0.2200  0.2800  0.3000  0.3200  0.3700  0.3700  0.3700  0.3700  0.3700  0.3700  0.3700  0.3300  0.3750  0.4200  0.4200  0.4200  0.4200  0.4200  0.4200  0.4200  0.4200  1.1000  1.1500  1.2000  1.2500  1.2500  1.2500  1.2500  1.2500  1.2500  1.2500 20.5032  0.4671  0.4924  0.4771  0.4307  0.3924  0.4200  0.3936  0.4141  0.3798
 1975 003    64   0.1100  0.1300  0.1500  0.2200  0.2200  0.2200  0.2200  0.2200  0.2200  0.2200  0.2800  0.3000  0.3200  0.3700  0.3700  0.3700  0.3700  0.3700  0.3700  0.3700  0.3300  0.3750  0.4200  0.4200  0.4200  0.4200  0.4200  0.4200  0.4200  0.4200  1.1000  1.1500  1.2000  1.2500  1.2500  1.2500  1.2500  1.2500  1.2500  1.2500 20.5973  0.4632  0.4887  0.4741  0.4282  0.3903  0.4172  0.3924  0.4131  0.3792
 1975 004    65   0.1100  0.1300  0.1500  0.2200  0.2200  0.2200  0.2200  0.2200  0.2200  0.2200  0.2800  0.3000  0.3200  0.3700  0.3700  0.3700  0.3700  0.3700  0.3700  0.3700  0.3300  0.3750  0.4200  0.4200  0.4200  0.4200  0.4200  0.4200  0.4200  0.4200  1.1000  1.1500  1.2000  1.2500  1.2500  1.2500  1.2500  1.2500  1.2500  1.2500 20.6890  0.4601  0.4855  0.4712  0.4257  0.3880  0.4143  0.3911  0.4120  0.3784
 1975 005    66   0.1100  0.1300  0.1500  0.2200  0.2200  0.2200  0.2200  0.2200  0.2200  0.2200  0.2800  0.3000  0.3200  0.3700  0.3700  0.3700  0.3700  0.3700  0.3700  0.3700  0.3300  0.3750  0.4200  0.4200  0.4200  0.4200  0.4200  0.4200  0.4200  0.4200  1.1000  1.1500  1.2000  1.2500  1.2500  1.2500  1.2500  1.2500  1.2500  1.2500 20.7831  0.4575  0.4827  0.4686  0.4233  0.3858  0.4114  0.3897  0.4108  0.3776
 1975 006    67   0.1100  0.1300  0.1500  0.2200  0.2200  0.2200  0.2200  0.2200  0.2200  0.2200  0.2800  0.3000  0.3200  0.3700  0.3700  0.3700  0.3700  0.3700  0.3700  0.3700  0.3300  0.3750  0.4200  0.4200  0.4200  0.4200  0.4200  0.4200  0.4200  0.4200  1.1000  1.1500  1.2000  1.2500  1.2500  1.2500  1.2500  1.2500  1.2500  1.2500 20.8468  0.4697  0.4903  0.4721  0.4244  0.3857  0.4100  0.3888  0.4097  0.3766
 1975 007    68   0.1100  0.1300  0.1500  0.2200  0.2200  0.2200  0.2200  0.2200  0.2200  0.2200  0.2800  0.3000  0.3200  0.3700  0.3700  0.3700  0.3700  0.3700  0.3700  0.3700  0.3300  0.3750  0.4200  0.4200  0.4200  0.4200  0.4200  0.4200  0.4200  0.4200  1.1000  1.1500  1.2000  1.2500  1.2500  1.2500  1.2500  1.2500  1.2500  1.2500 20.9238  0.4653  0.4886  0.4718  0.4244  0.3854  0.4091  0.3880  0.4087  0.3757
 1975 008    69   0.1100  0.1300  0.1500  0.2200  0.2200  0.2200  0.2200  0.2200  0.2200  0.2200  0.2800  0.3000  0.3200  0.3700  0.3700  0.3700  0.3700  0.3700  0.3700  0.3700  0.3300  0.3750  0.4200  0.4200  0.4200  0.4200  0.4200  0.4200  0.4200  0.4200  1.1000  1.1500  1.2000  1.2500  1.2500  1.2500  1.2500  1.2500  1.2500  1.2500 21.0094  0.4609  0.4853  0.4698  0.4230  0.3845  0.4078  0.3873  0.4078  0.3748
 1975 009    70   0.1100  0.1300  0.1500  0.2200  0.2200  0.2200  0.2200  0.2200  0.2200  0.2200  0.2800  0.3000  0.3200  0.3700  0.3700  0.3700  0.3700  0.3700  0.3700  0.3700  0.3300  0.3750  0.4200  0.4200  0.4200  0.4200  0.4200  0.4200  0.4200  0.4200  1.1000  1.1500  1.2000  1.2500  1.2500  1.2500  1.2500  1.2500  1.2500  1.2500 21.0975  0.4577  0.4822  0.4674  0.4212  0.3830  0.4061  0.3865  0.4069  0.3739
 1975 010    71   0.1100  0.1300  0.1500  0.2200  0.2200  0.2200  0.2200  0.2200  0.2200  0.2200  0.2800  0.3000  0.3200  0.3700  0.3700  0.3700  0.3700  0.3700  0.3700  0.3700  0.3300  0.3750  0.4200  0.4200  0.4200  0.4200  0.4200  0.4200  0.4200  0.4200  1.1000  1.1500  1.2000  1.2500  1.2500  1.2500  1.2500  1.2500  1.2500  1.2500 21.1849  0.4556  0.4799  0.4652  0.4193  0.3814  0.4041  0.3856  0.4060  0.3730
 1975 011    72   0.1100  0.1300  0.1500  0.2200  0.2200  0.2200  0.2200  0.2200  0.2200  0.2200  0.2800  0.3000  0.3200  0.3700  0.3700  0.3700  0.3700  0.3700  0.3700  0.3700  0.3300  0.3750  0.4200  0.4200  0.4200  0.4200  0.4200  0.4200  0.4200  0.4200  1.1000  1.1500  1.2000  1.2500  1.2500  1.2500  1.2500  1.2500  1.2500  1.2500 21.2698  0.4533  0.4775  0.4631  0.4175  0.3798  0.4020  0.3846  0.4050  0.3721
 1975 012    73   0.1100  0.1300  0.1500  0.2200  0.2200  0.2200  0.2200  0.2200  0.2200  0.2200  0.2800  0.3000  0.3200  0.3700  0.3700  0.3700  0.3700  0.3700  0.3700  0.3700  0.3300  0.3750  0.4200  0.4200  0.4200  0.4200  0.4200  0.4200  0.4200  0.4200  1.1000  1.1500  1.2000  1.2500  1.2500  1.2500  1.2500  1.2500  1.2500  1.2500 21.3033  0.4739  0.4920  0.4711  0.4215  0.3815  0.4023  0.3842  0.4042  0.3712
 1975 013    74   0.1100  0.1300  0.1500  0.2200  0.2200  0.2200  0.2200  0.2200  0.2200  0.2200  0.2800  0.3000  0.3200  0.3700  0.3700  0.3700  0.3700  0.3700  0.3700  0.3700  0.3300  0.3750  0.4200  0.4200  0.4200  0.4200  0.4200  0.4200  0.4200  0.4200  1.1000  1.1500  1.2000  1.2500  1.2500  1.2500  1.2500  1.2500  1.2500  1.2500 21.3689  0.4666  0.4894  0.4713  0.4225  0.3824  0.4030  0.3840  0.4036  0.3704
 1975 014    75   0.1100  0.1300  0.1500  0.2200  0.2200  0.2200  0.2200  0.2200  0.2200  0.2200  0.2800  0.3000  0.3200  0.3700  0.3700  0.3700  0.3700  0.3700  0.3700  0.3700  0.3300  0.3750  0.4200  0.4200  0.4200  0.4200  0.4200  0.4200  0.4200  0.4200  1.1000  1.1500  1.2000  1.2500  1.2500  1.2500  1.2500  1.2500  1.2500  1.2500 21.4225  0.4701  0.4917  0.4730  0.4239  0.3835  0.4040  0.3841  0.4032  0.3698
 1975 015    76   0.1100  0.1300  0.1500  0.2200  0.2200  0.2200  0.2200  0.2200  0.2200  0.2200  0.2800  0.3000  0.3200  0.3700  0.3700  0.3700  0.3700  0.3700  0.3700  0.3700  0.3300  0.3750  0.4200  0.4200  0.4200  0.4200  0.4200  0.4200  0.4200  0.4200  1.1000  1.1500  1.2000  1.2500  1.2500  1.2500  1.2500  1.2500  1.2500  1.2500 21.4479  0.4788  0.4993  0.4785  0.4279  0.3863  0.4065  0.3847  0.4032  0.3692
 1975 016    77   0.1100  0.1300  0.1500  0.2200  0.2200  0.2200  0.2200  0.2200  0.2200  0.2200  0.2800  0.3000  0.3200  0.3700  0.3700  0.3700  0.3700  0.3700  0.3700  0.3700  0.3300  0.3750  0.4200  0.4200  0.4200  0.4200  0.4200  0.4200  0.4200  0.4200  1.1000  1.1500  1.2000  1.2500  1.2500  1.2500  1.2500  1.2500  1.2500  1.2500 21.4668  0.4850  0.5063  0.4849  0.4332  0.3906  0.4110  0.3860  0.4036  0.3690
 1975 017    78   0.1100  0.1300  0.1500  0.2200  0.2200  0.2200  0.2200  0.2200  0.2200  0.2200  0.2800  0.3000  0.3200  0.3700  0.3700  0.3700  0.3700  0.3700  0.3700  0.3700  0.3300  0.3750  0.4200  0.4200  0.4200  0.4200  0.4200  0.4200  0.4200  0.4200  1.1000  1.1500  1.2000  1.2500  1.2500  1.2500  1.2500  1.2500  1.2500  1.2500 21.4821  0.4890  0.5115  0.4902  0.4384  0.3952  0.4168  0.3880  0.4047  0.3691
 1975 018    79   0.1100  0.1300  0.1500  0.2200  0.2200  0.2200  0.2200  0.2200  0.2200  0.2200  0.2800  0.3000  0.3200  0.3700  0.3700  0.3700  0.3700  0.3700  0.3700  0.3700  0.3300  0.3750  0.4200  0.4200  0.4200  0.4200  0.4200  0.4200  0.4200  0.4200  1.1000  1.1500  1.2000  1.2500  1.2500  1.2500  1.2500  1.2500  1.2500  1.2500 21.4375  0.5062  0.5289  0.5054  0.4513  0.4060  0.4292  0.3924  0.4073  0.3700
 1975 019    80   0.1100  0.1300  0.1500  0.2200  0.2200  0.2200  0.2200  0.2200  0.2200  0.2200  0.2800  0.3000  0.3200  0.3700  0.3700  0.3700  0.3700  0.3700  0.3700  0.3700  0.3300  0.3750  0.4200  0.4200  0.4200  0.4200  0.4200  0.4200  0.4200  0.4200  1.1000  1.1500  1.2000  1.2500  1.2500  1.2500  1.2500  1.2500  1.2500  1.2500 21.3772  0.5126  0.5380  0.5158  0.4624  0.4170  0.4445  0.3989  0.4121  0.3723
 1975 020    81   0.1100  0.1300  0.1500  0.2200  0.2200  0.2200  0.2200  0.2200  0.2200  0.2200  0.2800  0.3000  0.3200  0.3700  0.3700  0.3700  0.3700  0.3700  0.3700  0.3700  0.3300  0.3750  0.4200  0.4200  0.4200  0.4200  0.4200  0.4200  0.4200  0.4200  1.1000  1.1500  1.2000  1.2500  1.2500  1.2500  1.2500  1.2500  1.2500  1.2500 21.2094  0.5312  0.5590  0.5367  0.4829  0.4369  0.4722  0.4116  0.4226  0.3782
 1975 021    82   0.1100  0.1300  0.1500  0.2200  0.2200  0.2200  0.2200  0.2200  0.2200  0.2200  0.2800  0.3000  0.3200  0.3700  0.3700  0.3700  0.3700  0.3700  0.3700  0.3700  0.3300  0.3750  0.4200  0.4200  0.4200  0.4200  0.4200  0.4200  0.4200  0.4200  1.1000  1.1500  1.2000  1.2500  1.2500  1.2500  1.2500  1.2500  1.2500  1.2500 21.1414  0.5231  0.5532  0.5342  0.4836  0.4406  0.4828  0.4196  0.4327  0.3866
 1975 022    83   0.1100  0.1300  0.1500  0.2200  0.2200  0.2200  0.2200  0.2200  0.2200  0.2200  0.2800  0.3000  0.3200  0.3700  0.3700  0.3700  0.3700  0.3700  0.3700  0.3700  0.3300  0.3750  0.4200  0.4200  0.4200  0.4200  0.4200  0.4200  0.4200  0.4200  1.1000  1.1500  1.2000  1.2500  1.2500  1.2500  1.2500  1.2500  1.2500  1.2500 21.1358  0.5139  0.5444  0.5272  0.4786  0.4376  0.4822  0.4221  0.4387  0.3944
 1975 023    84   0.1100  0.1300  0.1500  0.2200  0.2200  0.2200  0.2200  0.2200  0.2200  0.2200  0.2800  0.3000  0.3200  0.3700  0.3700  0.3700  0.3700  0.3700  0.3700  0.3700  0.3300  0.3750  0.4200  0.4200  0.4200  0.4200  0.4200  0.4200  0.4200  0.4200  1.1000  1.1500  1.2000  1.2500  1.2500  1.2500  1.2500  1.2500  1.2500  1.2500 21.1680  0.5011  0.5320  0.5170  0.4702  0.4310  0.4754  0.4209  0.4406  0.3993
 1975 024    85   0.1100  0.1300  0.1500  0.2200  0.2200  0.2200  0.2200  0.2200  0.2200  0.2200  0.2800  0.3000  0.3200  0.3700  0.3700  0.3700  0.3700  0.3700  0.3700  0.3700  0.3300  0.3750  0.4200  0.4200  0.4200  0.4200  0.4200  0.4200  0.4200  0.4200  1.1000  1.1500  1.2000  1.2500  1.2500  1.2500  1.2500  1.2500  1.2500  1.2500 21.1189  0.5122  0.5401  0.5216  0.4725  0.4319  0.4754  0.4211  0.4419  0.4028
 1975 025    86   0.1100  0.1300  0.1500  0.2200  0.2200  0.2200  0.2200  0.2200  0.2200  0.2200  0.2800  0.3000  0.3200  0.3700  0.3700  0.3700  0.3700  0.3700  0.3700  0.3700  0.3300  0.3750  0.4200  0.4200  0.4200  0.4200  0.4200  0.4200  0.4200  0.4200  1.1000  1.1500  1.2000  1.2500  1.2500  1.2500  1.2500  1.2500  1.2500  1.2500 21.1411  0.5001  0.5302  0.5145  0.4673  0.4280  0.4713  0.4199  0.4419  0.4048
 1975 026    87   0.1100  0.1300  0.1500  0.2200  0.2200  0.2200  0.2200  0.2200  0.2200  0.2200  0.2800  0.3000  0.3200  0.3700  0.3700  0.3700  0.3700  0.3700  0.3700  0.3700  0.3300  0.3750  0.4200  0.4200  0.4200  0.4200  0.4200  0.4200  0.4200  0.4200  1.1000  1.1500  1.2000  1.2500  1.2500  1.2500  1.2500  1.2500  1.2500  1.2500 20.9830  0.5264  0.5543  0.5335  0.4822  0.4395  0.4837  0.4243  0.4454  0.4081
 1975 027    88   0.1100  0.1300  0.1500  0.2200  0.2200  0.2200  0.2200  0.2200  0.2200  0.2200  0.2800  0.3000  0.3200  0.3700  0.3700  0.3700  0.3700  0.3700  0.3700  0.3700  0.3300  0.3750  0.4200  0.4200  0.4200  0.4200  0.4200  0.4200  0.4200  0.4200  1.1000  1.1500  1.2000  1.2500  1.2500  1.2500  1.2500  1.2500  1.2500  1.2500 20.9180  0.5211  0.5513  0.5330  0.4836  0.4422  0.4892  0.4277  0.4492  0.4122
 1975 028    89   0.1100  0.1300  0.1500  0.2200  0.2200  0.2200  0.2200  0.2200  0.2200  0.2200  0.2800  0.3000  0.3200  0.3700  0.3700  0.3700  0.3700  0.3700  0.3700  0.3700  0.3300  0.3750  0.4200  0.4200  0.4200  0.4200  0.4200  0.4200  0.4200  0.4200  1.1000  1.1500  1.2000  1.2500  1.2500  1.2500  1.2500  1.2500  1.2500  1.2500 20.8010  0.5274  0.5576  0.5387  0.4889  0.4473  0.4967  0.4317  0.4540  0.4172
 1975 029    90   0.1100  0.1300  0.1500  0.2200  0.2200  0.2200  0.2200  0.2200  0.2200  0.2200  0.2800  0.3000  0.3200  0.3700  0.3700  0.3700  0.3700  0.3700  0.3700  0.3700  0.3300  0.3750  0.4200  0.4200  0.4200  0.4200  0.4200  0.4200  0.4200  0.4200  1.1000  1.1500  1.2000  1.2500  1.2500  1.2500  1.2500  1.2500  1.2500  1.2500 20.7846  0.5132  0.5449  0.5290  0.4816  0.4421  0.4920  0.4310  0.4551  0.4203
 1975 030    91   0.1100  0.1300  0.1500  0.2200  0.2200  0.2200  0.2200  0.2200  0.2200  0.2200  0.2800  0.3000  0.3200  0.3700  0.3700  0.3700  0.3700  0.3700  0.3700  0.3700  0.3300  0.3750  0.4200  0.4200  0.4200  0.4200  0.4200  0.4200  0.4200  0.4200  1.1000  1.1500  1.2000  1.2500  1.2500  1.2500  1.2500  1.2500  1.2500  1.2500 20.7867  0.5027  0.5340  0.5194  0.4733  0.4350  0.4836  0.4279  0.4535  0.4208
 1975 031    92   0.1100  0.1300  0.1500  0.2200  0.2200  0.2200  0.2200  0.2200  0.2200  0.2200  0.2800  0.3000  0.3200  0.3700  0.3700  0.3700  0.3700  0.3700  0.3700  0.3700  0.3300  0.3750  0.4200  0.4200  0.4200  0.4200  0.4200  0.4200  0.4200  0.4200  1.1000  1.1500  1.2000  1.2500  1.2500  1.2500  1.2500  1.2500  1.2500  1.2500 20.7603  0.5048  0.5340  0.5177  0.4706  0.4318  0.4784  0.4254  0.4514  0.4201
 1975 032    93   0.1100  0.1300  0.1500  0.2200  0.2200  0.2200  0.2200  0.2200  0.2200  0.2200  0.2800  0.3000  0.3200  0.3700  0.3700  0.3700  0.3700  0.3700  0.3700  0.3700  0.3300  0.3750  0.4200  0.4200  0.4200  0.4200  0.4200  0.4200  0.4200  0.4200  1.1000  1.1500  1.2000  1.2500  1.2500  1.2500  1.2500  1.2500  1.2500  1.2500 20.7737  0.4927  0.5235  0.5095  0.4639  0.4261  0.4712  0.4222  0.4487  0.4184
 1975 033    94   0.1100  0.1300  0.1500  0.2200  0.2200  0.2200  0.2200  0.2200  0.2200  0.2200  0.2800  0.3000  0.3200  0.3700  0.3700  0.3700  0.3700  0.3700  0.3700  0.3700  0.3300  0.3750  0.4200  0.4200  0.4200  0.4200  0.4200  0.4200  0.4200  0.4200  1.1000  1.1500  1.2000  1.2500  1.2500  1.2500  1.2500  1.2500  1.2500  1.2500 20.7963  0.4854  0.5157  0.5024  0.4574  0.4203  0.4635  0.4187  0.4455  0.4161
 1975 034    95   0.1100  0.1300  0.1500  0.2200  0.2200  0.2200  0.2200  0.2200  0.2200  0.2200  0.2800  0.3000  0.3200  0.3700  0.3700  0.3700  0.3700  0.3700  0.3700  0.3700  0.3300  0.3750  0.4200  0.4200  0.4200  0.4200  0.4200  0.4200  0.4200  0.4200  1.1000  1.1500  1.2000  1.2500  1.2500  1.2500  1.2500  1.2500  1.2500  1.2500 20.8232  0.4792  0.5090  0.4961  0.4516  0.4149  0.4562  0.4152  0.4421  0.4134
 1975 035    96   0.1100  0.1300  0.1500  0.2200  0.2200  0.2200  0.2200  0.2200  0.2200  0.2200  0.2800  0.3000  0.3200  0.3700  0.3700  0.3700  0.3700  0.3700  0.3700  0.3700  0.3300  0.3750  0.4200  0.4200  0.4200  0.4200  0.4200  0.4200  0.4200  0.4200  1.1000  1.1500  1.2000  1.2500  1.2500  1.2500  1.2500  1.2500  1.2500  1.2500 20.8533  0.4744  0.5036  0.4909  0.4466  0.4101  0.4494  0.4119  0.4388  0.4105
 1975 036    97   0.1100  0.1300  0.1500  0.2200  0.2200  0.2200  0.2200  0.2200  0.2200  0.2200  0.2800  0.3000  0.3200  0.3700  0.3700  0.3700  0.3700  0.3700  0.3700  0.3700  0.3300  0.3750  0.4200  0.4200  0.4200  0.4200  0.4200  0.4200  0.4200  0.4200  1.1000  1.1500  1.2000  1.2500  1.2500  1.2500  1.2500  1.2500  1.2500  1.2500 20.8789  0.4704  0.4990  0.4863  0.4422  0.4058  0.4433  0.4088  0.4355  0.4076
 1975 037    98   0.1100  0.1300  0.1500  0.2200  0.2200  0.2200  0.2200  0.2200  0.2200  0.2200  0.2800  0.3000  0.3200  0.3700  0.3700  0.3700  0.3700  0.3700  0.3700  0.3700  0.3300  0.3750  0.4200  0.4200  0.4200  0.4200  0.4200  0.4200  0.4200  0.4200  1.1000  1.1500  1.2000  1.2500  1.2500  1.2500  1.2500  1.2500  1.2500  1.2500 20.9057  0.4670  0.4951  0.4824  0.4383  0.4020  0.4377  0.4059  0.4325  0.4046
 1975 038    99   0.1100  0.1300  0.1500  0.2200  0.2200  0.2200  0.2200  0.2200  0.2200  0.2200  0.2800  0.3000  0.3200  0.3700  0.3700  0.3700  0.3700  0.3700  0.3700  0.3700  0.3300  0.3750  0.4200  0.4200  0.4200  0.4200  0.4200  0.4200  0.4200  0.4200  1.1000  1.1500  1.2000  1.2500  1.2500  1.2500  1.2500  1.2500  1.2500  1.2500 20.9251  0.4640  0.4917  0.4790  0.4348  0.3986  0.4327  0.4033  0.4296  0.4018
 1975 039   100   0.1100  0.1300  0.1500  0.2200  0.2200  0.2200  0.2200  0.2200  0.2200  0.2200  0.2800  0.3000  0.3200  0.3700  0.3700  0.3700  0.3700  0.3700  0.3700  0.3700  0.3300  0.3750  0.4200  0.4200  0.4200  0.4200  0.4200  0.4200  0.4200  0.4200  1.1000  1.1500  1.2000  1.2500  1.2500  1.2500  1.2500  1.2500  1.2500  1.2500 20.9479  0.4614  0.4886  0.4759  0.4317  0.3955  0.4281  0.4008  0.4268  0.3991
 1975 040   101   0.1100  0.1300  0.1500  0.2200  0.2200  0.2200  0.2200  0.2200  0.2200  0.2200  0.2800  0.3000  0.3200  0.3700  0.3700  0.3700  0.3700  0.3700  0.3700  0.3700  0.3300  0.3750  0.4200  0.4200  0.4200  0.4200  0.4200  0.4200  0.4200  0.4200  1.1000  1.1500  1.2000  1.2500  1.2500  1.2500  1.2500  1.2500  1.2500  1.2500 20.9642  0.4595  0.4862  0.4733  0.4290  0.3927  0.4240  0.3986  0.4243  0.3965
 1975 041   102   0.1100  0.1300  0.1500  0.2200  0.2200  0.2200  0.2200  0.2200  0.2200  0.2200  0.2800  0.3000  0.3200  0.3700  0.3700  0.3700  0.3700  0.3700  0.3700  0.3700  0.3300  0.3750  0.4200  0.4200  0.4200  0.4200  0.4200  0.4200  0.4200  0.4200  1.1000  1.1500  1.2000  1.2500  1.2500  1.2500  1.2500  1.2500  1.2500  1.2500 20.9723  0.4674  0.4907  0.4748  0.4289  0.3916  0.4212  0.3968  0.4220  0.3940
 1975 042   103   0.1100  0.1300  0.1500  0.2200  0.2200  0.2200  0.2200  0.2200  0.2200  0.2200  0.2800  0.3000  0.3200  0.3700  0.3700  0.3700  0.3700  0.3700  0.3700  0.3700  0.3300  0.3750  0.4200  0.4200  0.4200  0.4200  0.4200  0.4200  0.4200  0.4200  1.1000  1.1500  1.2000  1.2500  1.2500  1.2500  1.2500  1.2500  1.2500  1.2500 20.9391  0.4842  0.5053  0.4848  0.4350  0.3949  0.4227  0.3962  0.4204  0.3919
 1975 043   104   0.1100  0.1300  0.1500  0.2200  0.2200  0.2200  0.2200  0.2200  0.2200  0.2200  0.2800  0.3000  0.3200  0.3700  0.3700  0.3700  0.3700  0.3700  0.3700  0.3700  0.3300  0.3750  0.4200  0.4200  0.4200  0.4200  0.4200  0.4200  0.4200  0.4200  1.1000  1.1500  1.2000  1.2500  1.2500  1.2500  1.2500  1.2500  1.2500  1.2500 20.9318  0.4818  0.5061  0.4873  0.4380  0.3974  0.4251  0.3964  0.4195  0.3902
 1975 044   105   0.1100  0.1300  0.1500  0.2200  0.2200  0.2200  0.2200  0.2200  0.2200  0.2200  0.2800  0.3000  0.3200  0.3700  0.3700  0.3700  0.3700  0.3700  0.3700  0.3700  0.3300  0.3750  0.4200  0.4200  0.4200  0.4200  0.4200  0.4200  0.4200  0.4200  1.1000  1.1500  1.2000  1.2500  1.2500  1.2500  1.2500  1.2500  1.2500  1.2500 20.9335  0.4780  0.5036  0.4864  0.4381  0.3981  0.4262  0.3966  0.4189  0.3889
 1975 045   106   0.1100  0.1300  0.1500  0.2200  0.2200  0.2200  0.2200  0.2200  0.2200  0.2200  0.2800  0.3000  0.3200  0.3700  0.3700  0.3700  0.3700  0.3700  0.3700  0.3700  0.3300  0.3750  0.4200  0.4200  0.4200  0.4200  0.4200  0.4200  0.4200  0.4200  1.1000  1.1500  1.2000  1.2500  1.2500  1.2500  1.2500  1.2500  1.2500  1.2500 20.7430  0.5188  0.5427  0.5182  0.4633  0.4173  0.4460  0.4026  0.4216  0.3890
 1975 046   107   0.1100  0.1300  0.1500  0.2200  0.2200  0.2200  0.2200  0.2200  0.2200  0.2200  0.2800  0.3000  0.3200  0.3700  0.3700  0.3700  0.3700  0.3700  0.3700  0.3700  0.3300  0.3750  0.4200  0.4200  0.4200  0.4200  0.4200  0.4200  0.4200  0.4200  1.1000  1.1500  1.2000  1.2500  1.2500  1.2500  1.2500  1.2500  1.2500  1.2500 20.7426  0.4975  0.5273  0.5100  0.4606  0.4185  0.4522  0.4064  0.4248  0.3903
 1975 047   108   0.1100  0.1300  0.1500  0.2200  0.2200  0.2200  0.2200  0.2200  0.2200  0.2200  0.2800  0.3000  0.3200  0.3700  0.3700  0.3700  0.3700  0.3700  0.3700  0.3700  0.3300  0.3750  0.4200  0.4200  0.4200  0.4200  0.4200  0.4200  0.4200  0.4200  1.1000  1.1500  1.2000  1.2500  1.2500  1.2500  1.2500  1.2500  1.2500  1.2500 20.7484  0.4887  0.5182  0.5027  0.4553  0.4154  0.4510  0.4073  0.4267  0.3917
 1975 048   109   0.1100  0.1300  0.1500  0.2200  0.2200  0.2200  0.2200  0.2200  0.2200  0.2200  0.2800  0.3000  0.3200  0.3700  0.3700  0.3700  0.3700  0.3700  0.3700  0.3700  0.3300  0.3750  0.4200  0.4200  0.4200  0.4200  0.4200  0.4200  0.4200  0.4200  1.1000  1.1500  1.2000  1.2500  1.2500  1.2500  1.2500  1.2500  1.2500  1.2500 20.7418  0.4897  0.5172  0.5007  0.4531  0.4135  0.4492  0.4073  0.4276  0.3928
 1975 049   110   0.1100  0.1300  0.1500  0.2200  0.2200  0.2200  0.2200  0.2200  0.2200  0.2200  0.2800  0.3000  0.3200  0.3700  0.3700  0.3700  0.3700  0.3700  0.3700  0.3700  0.3300  0.3750  0.4200  0.4200  0.4200  0.4200  0.4200  0.4200  0.4200  0.4200  1.1000  1.1500  1.2000  1.2500  1.2500  1.2500  1.2500  1.2500  1.2500  1.2500 20.6428  0.5090  0.5347  0.5140  0.4628  0.4205  0.4560  0.4097  0.4295  0.3943
 1975 050   111   0.1100  0.1300  0.1500  0.2200  0.2200  0.2200  0.2200  0.2200  0.2200  0.2200  0.2800  0.3000  0.3200  0.3700  0.3700  0.3700  0.3700  0.3700  0.3700  0.3700  0.3300  0.3750  0.4200  0.4200  0.4200  0.4200  0.4200  0.4200  0.4200  0.4200  1.1000  1.1500  1.2000  1.2500  1.2500  1.2500  1.2500  1.2500  1.2500  1.2500 20.6310  0.4927  0.5227  0.5067  0.4589  0.4188  0.4560  0.4105  0.4309  0.3957
 1975 051   112   0.1100  0.1300  0.1500  0.2200  0.2200  0.2200  0.2200  0.2200  0.2200  0.2200  0.2800  0.3000  0.3200  0.3700  0.3700  0.3700  0.3700  0.3700  0.3700  0.3700  0.3300  0.3750  0.4200  0.4200  0.4200  0.4200  0.4200  0.4200  0.4200  0.4200  1.1000  1.1500  1.2000  1.2500  1.2500  1.2500  1.2500  1.2500  1.2500  1.2500 20.6321  0.4828  0.5130  0.4989  0.4529  0.4143  0.4518  0.4095  0.4309  0.3964
 1975 052   113   0.1100  0.1300  0.1500  0.2200  0.2200  0.2200  0.2200  0.2200  0.2200  0.2200  0.2800  0.3000  0.3200  0.3700  0.3700  0.3700  0.3700  0.3700  0.3700  0.3700  0.3300  0.3750  0.4200  0.4200  0.4200  0.4200  0.4200  0.4200  0.4200  0.4200  1.1000  1.1500  1.2000  1.2500  1.2500  1.2500  1.2500  1.2500  1.2500  1.2500 20.6379  0.4760  0.5058  0.4925  0.4473  0.4096  0.4463  0.4076  0.4300  0.3964
 1975 053   114   0.1100  0.1300  0.1500  0.2200  0.2200  0.2200  0.2200  0.2200  0.2200  0.2200  0.2800  0.3000  0.3200  0.3700  0.3700  0.3700  0.3700  0.3700  0.3700  0.3700  0.3300  0.3750  0.4200  0.4200  0.4200  0.4200  0.4200  0.4200  0.4200  0.4200  1.1000  1.1500  1.2000  1.2500  1.2500  1.2500  1.2500  1.2500  1.2500  1.2500 20.6446  0.4714  0.5004  0.4873  0.4425  0.4053  0.4408  0.4054  0.4284  0.3958
 1975 054   115   0.1100  0.1300  0.1500  0.2200  0.2200  0.2200  0.2200  0.2200  0.2200  0.2200  0.2800  0.3000  0.3200  0.3700  0.3700  0.3700  0.3700  0.3700  0.3700  0.3700  0.3300  0.3750  0.4200  0.4200  0.4200  0.4200  0.4200  0.4200  0.4200  0.4200  1.1000  1.1500  1.2000  1.2500  1.2500  1.2500  1.2500  1.2500  1.2500  1.2500 20.6525  0.4676  0.4961  0.4831  0.4385  0.4015  0.4356  0.4031  0.4266  0.3947
 1975 055   116   0.1100  0.1300  0.1500  0.2200  0.2200  0.2200  0.2200  0.2200  0.2200  0.2200  0.2800  0.3000  0.3200  0.3700  0.3700  0.3700  0.3700  0.3700  0.3700  0.3700  0.3300  0.3750  0.4200  0.4200  0.4200  0.4200  0.4200  0.4200  0.4200  0.4200  1.1000  1.1500  1.2000  1.2500  1.2500  1.2500  1.2500  1.2500  1.2500  1.2500 20.6535  0.4643  0.4924  0.4794  0.4349  0.3981  0.4309  0.4008  0.4246  0.3933
 1975 056   117   0.1100  0.1300  0.1500  0.2200  0.2200  0.2200  0.2200  0.2200  0.2200  0.2200  0.2800  0.3000  0.3200  0.3700  0.3700  0.3700  0.3700  0.3700  0.3700  0.3700  0.3300  0.3750  0.4200  0.4200  0.4200  0.4200  0.4200  0.4200  0.4200  0.4200  1.1000  1.1500  1.2000  1.2500  1.2500  1.2500  1.2500  1.2500  1.2500  1.2500 20.6780  0.4611  0.4890  0.4761  0.4317  0.3950  0.4265  0.3987  0.4225  0.3917
 1975 057   118   0.1100  0.1300  0.1500  0.2200  0.2200  0.2200  0.2200  0.2200  0.2200  0.2200  0.2800  0.3000  0.3200  0.3700  0.3700  0.3700  0.3700  0.3700  0.3700  0.3700  0.3300  0.3750  0.4200  0.4200  0.4200  0.4200  0.4200  0.4200  0.4200  0.4200  1.1000  1.1500  1.2000  1.2500  1.2500  1.2500  1.2500  1.2500  1.2500  1.2500 20.6823  0.4588  0.4861  0.4732  0.4288  0.3922  0.4225  0.3967  0.4205  0.3900
 1975 058   119   0.1100  0.1300  0.1500  0.2200  0.2200  0.2200  0.2200  0.2200  0.2200  0.2200  0.2800  0.3000  0.3200  0.3700  0.3700  0.3700  0.3700  0.3700  0.3700  0.3700  0.3300  0.3750  0.4200  0.4200  0.4200  0.4200  0.4200  0.4200  0.4200  0.4200  1.1000  1.1500  1.2000  1.2500  1.2500  1.2500  1.2500  1.2500  1.2500  1.2500 20.6784  0.4560  0.4833  0.4704  0.4261  0.3896  0.4187  0.3948  0.4185  0.3882
 1975 059   120   0.1100  0.1300  0.1500  0.2200  0.2200  0.2200  0.2200  0.2200  0.2200  0.2200  0.2800  0.3000  0.3200  0.3700  0.3700  0.3700  0.3700  0.3700  0.3700  0.3700  0.3300  0.3750  0.4200  0.4200  0.4200  0.4200  0.4200  0.4200  0.4200  0.4200  1.1000  1.1500  1.2000  1.2500  1.2500  1.2500  1.2500  1.2500  1.2500  1.2500 20.6802  0.4536  0.4806  0.4679  0.4236  0.3872  0.4152  0.3929  0.4166  0.3865
 1975 060   121   0.1100  0.1300  0.1500  0.2200  0.2200  0.2200  0.2200  0.2200  0.2200  0.2200  0.2800  0.3000  0.3200  0.3700  0.3700  0.3700  0.3700  0.3700  0.3700  0.3700  0.3300  0.3750  0.4200  0.4200  0.4200  0.4200  0.4200  0.4200  0.4200  0.4200  1.1000  1.1500  1.2000  1.2500  1.2500  1.2500  1.2500  1.2500  1.2500  1.2500 20.6958  0.4515  0.4783  0.4656  0.4213  0.3849  0.4119  0.3912  0.4147  0.3847
 1975 061   122   0.1100  0.1300  0.1500  0.2200  0.2200  0.2200  0.2200  0.2200  0.2200  0.2200  0.2800  0.3000  0.3200  0.3700  0.3700  0.3700  0.3700  0.3700  0.3700  0.3700  0.3300  0.3750  0.4200  0.4200  0.4200  0.4200  0.4200  0.4200  0.4200  0.4200  1.1000  1.1500  1.2000  1.2500  1.2500  1.2500  1.2500  1.2500  1.2500  1.2500 20.6707  0.4687  0.4898  0.4715  0.4239  0.3855  0.4109  0.3901  0.4132  0.3830
 1975 062   123   0.1100  0.1300  0.1500  0.2200  0.2200  0.2200  0.2200  0.2200  0.2200  0.2200  0.2800  0.3000  0.3200  0.3700  0.3700  0.3700  0.3700  0.3700  0.3700  0.3700  0.3300  0.3750  0.4200  0.4200  0.4200  0.4200  0.4200  0.4200  0.4200  0.4200  1.1000  1.1500  1.2000  1.2500  1.2500  1.2500  1.2500  1.2500  1.2500  1.2500 20.6729  0.4633  0.4881  0.4718  0.4245  0.3858  0.4104  0.3893  0.4118  0.3815
 1975 063   124   0.1100  0.1300  0.1500  0.2200  0.2200  0.2200  0.2200  0.2200  0.2200  0.2200  0.2800  0.3000  0.3200  0.3700  0.3700  0.3700  0.3700  0.3700  0.3700  0.3700  0.3300  0.3750  0.4200  0.4200  0.4200  0.4200  0.4200  0.4200  0.4200  0.4200  1.1000  1.1500  1.2000  1.2500  1.2500  1.2500  1.2500  1.2500  1.2500  1.2500 20.5848  0.4890  0.5100  0.4873  0.4352  0.3927  0.4159  0.3903  0.4114  0.3803
 1975 064   125   0.1100  0.1300  0.1500  0.2200  0.2200  0.2200  0.2200  0.2200  0.2200  0.2200  0.2800  0.3000  0.3200  0.3700  0.3700  0.3700  0.3700  0.3700  0.3700  0.3700  0.3300  0.3750  0.4200  0.4200  0.4200  0.4200  0.4200  0.4200  0.4200  0.4200  1.1000  1.1500  1.2000  1.2500  1.2500  1.2500  1.2500  1.2500  1.2500  1.2500 20.5863  0.4767  0.5034  0.4858  0.4364  0.3951  0.4197  0.3914  0.4115  0.3796
 1975 065   126   0.1100  0.1300  0.1500  0.2200  0.2200  0.2200  0.2200  0.2200  0.2200  0.2200  0.2800  0.3000  0.3200  0.3700  0.3700  0.3700  0.3700  0.3700  0.3700  0.3700  0.3300  0.3750  0.4200  0.4200  0.4200  0.4200  0.4200  0.4200  0.4200  0.4200  1.1000  1.1500  1.2000  1.2500  1.2500  1.2500  1.2500  1.2500  1.2500  1.2500 20.5251  0.4915  0.5154  0.4947  0.4434  0.4007  0.4261  0.3936  0.4125  0.3793
 1975 066   127   0.1100  0.1300  0.1500  0.2200  0.2200  0.2200  0.2200  0.2200  0.2200  0.2200  0.2800  0.3000  0.3200  0.3700  0.3700  0.3700  0.3700  0.3700  0.3700  0.3700  0.3300  0.3750  0.4200  0.4200  0.4200  0.4200  0.4200  0.4200  0.4200  0.4200  1.1000  1.1500  1.2000  1.2500  1.2500  1.2500  1.2500  1.2500  1.2500  1.2500 20.4079  0.5066  0.5321  0.5101  0.4570  0.4124  0.4399  0.3985  0.4154  0.3802
 1975 067   128   0.1100  0.1300  0.1500  0.2200  0.2200  0.2200  0.2200  0.2200  0.2200  0.2200  0.2800  0.3000  0.3200  0.3700  0.3700  0.3700  0.3700  0.3700  0.3700  0.3700  0.3300  0.3750  0.4200  0.4200  0.4200  0.4200  0.4200  0.4200  0.4200  0.4200  1.1000  1.1500  1.2000  1.2500  1.2500  1.2500  1.2500  1.2500  1.2500  1.2500 20.1787  0.5268  0.5559  0.5340  0.4804  0.4345  0.4694  0.4109  0.4245  0.3846
 1975 068   129   0.1100  0.1300  0.1500  0.2200  0.2200  0.2200  0.2200  0.2200  0.2200  0.2200  0.2800  0.3000  0.3200  0.3700  0.3700  0.3700  0.3700  0.3700  0.3700  0.3700  0.3300  0.3750  0.4200  0.4200  0.4200  0.4200  0.4200  0.4200  0.4200  0.4200  1.1000  1.1500  1.2000  1.2500  1.2500  1.2500  1.2500  1.2500  1.2500  1.2500 20.1470  0.5055  0.5380  0.5220  0.4735  0.4321  0.4729  0.4157  0.4315  0.3903
 1975 069   130   0.1100  0.1300  0.1500  0.2200  0.2200  0.2200  0.2200  0.2200  0.2200  0.2200  0.2800  0.3000  0.3200  0.3700  0.3700  0.3700  0.3700  0.3700  0.3700  0.3700  0.3300  0.3750  0.4200  0.4200  0.4200  0.4200  0.4200  0.4200  0.4200  0.4200  1.1000  1.1500  1.2000  1.2500  1.2500  1.2500  1.2500  1.2500  1.2500  1.2500 20.1524  0.4913  0.5240  0.5104  0.4642  0.4253  0.4670  0.4155  0.4343  0.3946
 1975 070   131   0.1100  0.1300  0.1500  0.2200  0.2200  0.2200  0.2200  0.2200  0.2200  0.2200  0.2800  0.3000  0.3200  0.3700  0.3700  0.3700  0.3700  0.3700  0.3700  0.3700  0.3300  0.3750  0.4200  0.4200  0.4200  0.4200  0.4200  0.4200  0.4200  0.4200  1.1000  1.1500  1.2000  1.2500  1.2500  1.2500  1.2500  1.2500  1.2500  1.2500 20.0484  0.5092  0.5377  0.5191  0.4697  0.4286  0.4699  0.4171  0.4368  0.3983
 1975 071   132   0.1100  0.1300  0.1500  0.2200  0.2200  0.2200  0.2200  0.2200  0.2200  0.2200  0.2800  0.3000  0.3200  0.3700  0.3700  0.3700  0.3700  0.3700  0.3700  0.3700  0.3300  0.3750  0.4200  0.4200  0.4200  0.4200  0.4200  0.4200  0.4200  0.4200  1.1000  1.1500  1.2000  1.2500  1.2500  1.2500  1.2500  1.2500  1.2500  1.2500 19.9893  0.5064  0.5366  0.5194  0.4706  0.4299  0.4721  0.4185  0.4390  0.4015
 1975 072   133   0.1100  0.1300  0.1500  0.2200  0.2200  0.2200  0.2200  0.2200  0.2200  0.2200  0.2800  0.3000  0.3200  0.3700  0.3700  0.3700  0.3700  0.3700  0.3700  0.3700  0.3300  0.3750  0.4200  0.4200  0.4200  0.4200  0.4200  0.4200  0.4200  0.4200  1.1000  1.1500  1.2000  1.2500  1.2500  1.2500  1.2500  1.2500  1.2500  1.2500 19.8860  0.5138  0.5437  0.5254  0.4758  0.4345  0.4779  0.4213  0.4421  0.4050
 1975 073   134   0.1100  0.1300  0.1500  0.2200  0.2200  0.2200  0.2200  0.2200  0.2200  0.2200  0.2800  0.3000  0.3200  0.3700  0.3700  0.3700  0.3700  0.3700  0.3700  0.3700  0.3300  0.3750  0.4200  0.4200  0.4200  0.4200  0.4200  0.4200  0.4200  0.4200  1.1000  1.1500  1.2000  1.2500  1.2500  1.2500  1.2500  1.2500  1.2500  1.2500 19.8629  0.4990  0.5313  0.5165  0.4696  0.4303  0.4747  0.4210  0.4432  0.4074
 1975 074   135   0.1100  0.1300  0.1500  0.2200  0.2200  0.2200  0.2200  0.2200  0.2200  0.2200  0.2800  0.3000  0.3200  0.3700  0.3700  0.3700  0.3700  0.3700  0.3700  0.3700  0.3300  0.3750  0.4200  0.4200  0.4200  0.4200  0.4200  0.4200  0.4200  0.4200  1.1000  1.1500  1.2000  1.2500  1.2500  1.2500  1.2500  1.2500  1.2500  1.2500 19.8492  0.4923  0.5238  0.5096  0.4636  0.4253  0.4689  0.4191  0.4426  0.4084
 1975 075   136   0.1100  0.1300  0.1500  0.2200  0.2200  0.2200  0.2200  0.2200  0.2200  0.2200  0.2800  0.3000  0.3200  0.3700  0.3700  0.3700  0.3700  0.3700  0.3700  0.3700  0.3300  0.3750  0.4200  0.4200  0.4200  0.4200  0.4200  0.4200  0.4200  0.4200  1.1000  1.1500  1.2000  1.2500  1.2500  1.2500  1.2500  1.2500  1.2500  1.2500 19.8344  0.4833  0.5151  0.5021  0.4571  0.4196  0.4619  0.4163  0.4408  0.4080
 1975 076   137   0.1100  0.1300  0.1500  0.2200  0.2200  0.2200  0.2200  0.2200  0.2200  0.2200  0.2800  0.3000  0.3200  0.3700  0.3700  0.3700  0.3700  0.3700  0.3700  0.3700  0.3300  0.3750  0.4200  0.4200  0.4200  0.4200  0.4200  0.4200  0.4200  0.4200  1.1000  1.1500  1.2000  1.2500  1.2500  1.2500  1.2500  1.2500  1.2500  1.2500 19.8200  0.4761  0.5076  0.4953  0.4510  0.4141  0.4547  0.4132  0.4383  0.4068
 1975 077   138   0.1100  0.1300  0.1500  0.2200  0.2200  0.2200  0.2200  0.2200  0.2200  0.2200  0.2800  0.3000  0.3200  0.3700  0.3700  0.3700  0.3700  0.3700  0.3700  0.3700  0.3300  0.3750  0.4200  0.4200  0.4200  0.4200  0.4200  0.4200  0.4200  0.4200  1.1000  1.1500  1.2000  1.2500  1.2500  1.2500  1.2500  1.2500  1.2500  1.2500 19.7934  0.4744  0.5042  0.4913  0.4467  0.4099  0.4486  0.4103  0.4356  0.4050
 1975 078   139   0.1100  0.1300  0.1500  0.2200  0.2200  0.2200  0.2200  0.2200  0.2200  0.2200  0.2800  0.3000  0.3200  0.3700  0.3700  0.3700  0.3700  0.3700  0.3700  0.3700  0.3300  0.3750  0.4200  0.4200  0.4200  0.4200  0.4200  0.4200  0.4200  0.4200  1.1000  1.1500  1.2000  1.2500  1.2500  1.2500  1.2500  1.2500  1.2500  1.2500 19.8022  0.4700  0.4999  0.4872  0.4428  0.4061  0.4431  0.4076  0.4330  0.4030
 1975 079   140   0.1100  0.1300  0.1500  0.2200  0.2200  0.2200  0.2200  0.2200  0.2200  0.2200  0.2800  0.3000  0.3200  0.3700  0.3700  0.3700  0.3700  0.3700  0.3700  0.3700  0.3300  0.3750  0.4200  0.4200  0.4200  0.4200  0.4200  0.4200  0.4200  0.4200  1.1000  1.1500  1.2000  1.2500  1.2500  1.2500  1.2500  1.2500  1.2500  1.2500 19.8156  0.4665  0.4960  0.4835  0.4391  0.4026  0.4381  0.4050  0.4304  0.4008
 1975 080   141   0.1100  0.1300  0.1500  0.2200  0.2200  0.2200  0.2200  0.2200  0.2200  0.2200  0.2800  0.3000  0.3200  0.3700  0.3700  0.3700  0.3700  0.3700  0.3700  0.3700  0.3300  0.3750  0.4200  0.4200  0.4200  0.4200  0.4200  0.4200  0.4200  0.4200  1.1000  1.1500  1.2000  1.2500  1.2500  1.2500  1.2500  1.2500  1.2500  1.2500 19.6842  0.5016  0.5259  0.5045  0.4531  0.4113  0.4446  0.4060  0.4296  0.3993
 1975 081   142   0.1100  0.1300  0.1500  0.2200  0.2200  0.2200  0.2200  0.2200  0.2200  0.2200  0.2800  0.3000  0.3200  0.3700  0.3700  0.3700  0.3700  0.3700  0.3700  0.3700  0.3300  0.3750  0.4200  0.4200  0.4200  0.4200  0.4200  0.4200  0.4200  0.4200  1.1000  1.1500  1.2000  1.2500  1.2500  1.2500  1.2500  1.2500  1.2500  1.2500 19.6505  0.4885  0.5181  0.5017  0.4533  0.4129  0.4476  0.4069  0.4296  0.3985
 1975 082   143   0.1100  0.1300  0.1500  0.2200  0.2200  0.2200  0.2200  0.2200  0.2200  0.2200  0.2800  0.3000  0.3200  0.3700  0.3700  0.3700  0.3700  0.3700  0.3700  0.3700  0.3300  0.3750  0.4200  0.4200  0.4200  0.4200  0.4200  0.4200  0.4200  0.4200  1.1000  1.1500  1.2000  1.2500  1.2500  1.2500  1.2500  1.2500  1.2500  1.2500 19.6320  0.4784  0.5092  0.4952  0.4490  0.4102  0.4458  0.4065  0.4293  0.3978
 1975 083   144   0.1100  0.1300  0.1500  0.2200  0.2200  0.2200  0.2200  0.2200  0.2200  0.2200  0.2800  0.3000  0.3200  0.3700  0.3700  0.3700  0.3700  0.3700  0.3700  0.3700  0.3300  0.3750  0.4200  0.4200  0.4200  0.4200  0.4200  0.4200  0.4200  0.4200  1.1000  1.1500  1.2000  1.2500  1.2500  1.2500  1.2500  1.2500  1.2500  1.2500 19.6161  0.4712  0.5020  0.4892  0.4441  0.4064  0.4417  0.4051  0.4283  0.3970
 1975 084   145   0.1100  0.1300  0.1500  0.2200  0.2200  0.2200  0.2200  0.2200  0.2200  0.2200  0.2800  0.3000  0.3200  0.3700  0.3700  0.3700  0.3700  0.3700  0.3700  0.3700  0.3300  0.3750  0.4200  0.4200  0.4200  0.4200  0.4200  0.4200  0.4200  0.4200  1.1000  1.1500  1.2000  1.2500  1.2500  1.2500  1.2500  1.2500  1.2500  1.2500 19.5994  0.4659  0.4963  0.4841  0.4395  0.4025  0.4370  0.4032  0.4268  0.3959
 1975 085   146   0.1100  0.1300  0.1500  0.2200  0.2200  0.2200  0.2200  0.2200  0.2200  0.2200  0.2800  0.3000  0.3200  0.3700  0.3700  0.3700  0.3700  0.3700  0.3700  0.3700  0.3300  0.3750  0.4200  0.4200  0.4200  0.4200  0.4200  0.4200  0.4200  0.4200  1.1000  1.1500  1.2000  1.2500  1.2500  1.2500  1.2500  1.2500  1.2500  1.2500 19.5347  0.4858  0.5110  0.4926  0.4441  0.4046  0.4374  0.4026  0.4258  0.3948
 1975 086   147   0.1100  0.1300  0.1500  0.2200  0.2200  0.2200  0.2200  0.2200  0.2200  0.2200  0.2800  0.3000  0.3200  0.3700  0.3700  0.3700  0.3700  0.3700  0.3700  0.3700  0.3300  0.3750  0.4200  0.4200  0.4200  0.4200  0.4200  0.4200  0.4200  0.4200  1.1000  1.1500  1.2000  1.2500  1.2500  1.2500  1.2500  1.2500  1.2500  1.2500 19.4228  0.5010  0.5275  0.5070  0.4558  0.4134  0.4459  0.4049  0.4265  0.3945
 1975 087   148   0.1100  0.1300  0.1500  0.2200  0.2200  0.2200  0.2200  0.2200  0.2200  0.2200  0.2800  0.3000  0.3200  0.3700  0.3700  0.3700  0.3700  0.3700  0.3700  0.3700  0.3300  0.3750  0.4200  0.4200  0.4200  0.4200  0.4200  0.4200  0.4200  0.4200  1.1000  1.1500  1.2000  1.2500  1.2500  1.2500  1.2500  1.2500  1.2500  1.2500 19.3666  0.4857  0.5167  0.5013  0.4535  0.4133  0.4479  0.4061  0.4274  0.3946
 1975 088   149   0.1100  0.1300  0.1500  0.2200  0.2200  0.2200  0.2200  0.2200  0.2200  0.2200  0.2800  0.3000  0.3200  0.3700  0.3700  0.3700  0.3700  0.3700  0.3700  0.3700  0.3300  0.3750  0.4200  0.4200  0.4200  0.4200  0.4200  0.4200  0.4200  0.4200  1.1000  1.1500  1.2000  1.2500  1.2500  1.2500  1.2500  1.2500  1.2500  1.2500 19.3248  0.4823  0.5124  0.4975  0.4506  0.4115  0.4469  0.4062  0.4278  0.3948
 1975 089   150   0.1100  0.1300  0.1500  0.2200  0.2200  0.2200  0.2200  0.2200  0.2200  0.2200  0.2800  0.3000  0.3200  0.3700  0.3700  0.3700  0.3700  0.3700  0.3700  0.3700  0.3300  0.3750  0.4200  0.4200  0.4200  0.4200  0.4200  0.4200  0.4200  0.4200  1.1000  1.1500  1.2000  1.2500  1.2500  1.2500  1.2500  1.2500  1.2500  1.2500 19.2753  0.4838  0.5128  0.4971  0.4499  0.4107  0.4459  0.4060  0.4278  0.3949
 1975 090   151   0.1100  0.1300  0.1500  0.2200  0.2200  0.2200  0.2200  0.2200  0.2200  0.2200  0.2800  0.3000  0.3200  0.3700  0.3700  0.3700  0.3700  0.3700  0.3700  0.3700  0.3300  0.3750  0.4200  0.4200  0.4200  0.4200  0.4200  0.4200  0.4200  0.4200  1.1000  1.1500  1.2000  1.2500  1.2500  1.2500  1.2500  1.2500  1.2500  1.2500 19.2408  0.4768  0.5072  0.4931  0.4469  0.4084  0.4435  0.4052  0.4274  0.3947
 1975 091   152   0.1100  0.1300  0.1500  0.2200  0.2200  0.2200  0.2200  0.2200  0.2200  0.2200  0.2800  0.3000  0.3200  0.3700  0.3700  0.3700  0.3700  0.3700  0.3700  0.3700  0.3300  0.3750  0.4200  0.4200  0.4200  0.4200  0.4200  0.4200  0.4200  0.4200  1.1000  1.1500  1.2000  1.2500  1.2500  1.2500  1.2500  1.2500  1.2500  1.2500 19.1722  0.4849  0.5129  0.4962  0.4484  0.4090  0.4435  0.4049  0.4271  0.3945
 1975 092   153   0.1100  0.1300  0.1500  0.2200  0.2200  0.2200  0.2200  0.2200  0.2200  0.2200  0.2800  0.3000  0.3200  0.3700  0.3700  0.3700  0.3700  0.3700  0.3700  0.3700  0.3300  0.3750  0.4200  0.4200  0.4200  0.4200  0.4200  0.4200  0.4200  0.4200  1.1000  1.1500  1.2000  1.2500  1.2500  1.2500  1.2500  1.2500  1.2500  1.2500 19.1277  0.4809  0.5104  0.4950  0.4478  0.4086  0.4430  0.4047  0.4268  0.3942
 1975 093   154   0.1100  0.1300  0.1500  0.2200  0.2200  0.2200  0.2200  0.2200  0.2200  0.2200  0.2800  0.3000  0.3200  0.3700  0.3700  0.3700  0.3700  0.3700  0.3700  0.3700  0.3300  0.3750  0.4200  0.4200  0.4200  0.4200  0.4200  0.4200  0.4200  0.4200  1.1000  1.1500  1.2000  1.2500  1.2500  1.2500  1.2500  1.2500  1.2500  1.2500 19.0336  0.4934  0.5212  0.5029  0.4535  0.4127  0.4469  0.4058  0.4273  0.3943
 1975 094   155   0.1100  0.1300  0.1500  0.2200  0.2200  0.2200  0.2200  0.2200  0.2200  0.2200  0.2800  0.3000  0.3200  0.3700  0.3700  0.3700  0.3700  0.3700  0.3700  0.3700  0.3300  0.3750  0.4200  0.4200  0.4200  0.4200  0.4200  0.4200  0.4200  0.4200  1.1000  1.1500  1.2000  1.2500  1.2500  1.2500  1.2500  1.2500  1.2500  1.2500 18.9963  0.4817  0.5129  0.4982  0.4511  0.4117  0.4470  0.4061  0.4276  0.3945
 1975 095   156   0.1100  0.1300  0.1500  0.2200  0.2200  0.2200  0.2200  0.2200  0.2200  0.2200  0.2800  0.3000  0.3200  0.3700  0.3700  0.3700  0.3700  0.3700  0.3700  0.3700  0.3300  0.3750  0.4200  0.4200  0.4200  0.4200  0.4200  0.4200  0.4200  0.4200  1.1000  1.1500  1.2000  1.2500  1.2500  1.2500  1.2500  1.2500  1.2500  1.2500 18.9093  0.4929  0.5215  0.5040  0.4551  0.4146  0.4500  0.4072  0.4285  0.3950
 1975 096   157   0.1100  0.1300  0.1500  0.2200  0.2200  0.2200  0.2200  0.2200  0.2200  0.2200  0.2800  0.3000  0.3200  0.3700  0.3700  0.3700  0.3700  0.3700  0.3700  0.3700  0.3300  0.3750  0.4200  0.4200  0.4200  0.4200  0.4200  0.4200  0.4200  0.4200  1.1000  1.1500  1.2000  1.2500  1.2500  1.2500  1.2500  1.2500  1.2500  1.2500 18.8731  0.4798  0.5118  0.4979  0.4514  0.4125  0.4487  0.4071  0.4288  0.3953
 1975 097   158   0.1100  0.1300  0.1500  0.2200  0.2200  0.2200  0.2200  0.2200  0.2200  0.2200  0.2800  0.3000  0.3200  0.3700  0.3700  0.3700  0.3700  0.3700  0.3700  0.3700  0.3300  0.3750  0.4200  0.4200  0.4200  0.4200  0.4200  0.4200  0.4200  0.4200  1.1000  1.1500  1.2000  1.2500  1.2500  1.2500  1.2500  1.2500  1.2500  1.2500 18.8216  0.4821  0.5121  0.4970  0.4502  0.4113  0.4473  0.4067  0.4287  0.3955
 1975 098   159   0.1100  0.1300  0.1500  0.2200  0.2200  0.2200  0.2200  0.2200  0.2200  0.2200  0.2800  0.3000  0.3200  0.3700  0.3700  0.3700  0.3700  0.3700  0.3700  0.3700  0.3300  0.3750  0.4200  0.4200  0.4200  0.4200  0.4200  0.4200  0.4200  0.4200  1.1000  1.1500  1.2000  1.2500  1.2500  1.2500  1.2500  1.2500  1.2500  1.2500 18.7090  0.4921  0.5210  0.5035  0.4548  0.4144  0.4501  0.4075  0.4292  0.3958
 1975 099   160   0.1100  0.1300  0.1500  0.2200  0.2200  0.2200  0.2200  0.2200  0.2200  0.2200  0.2800  0.3000  0.3200  0.3700  0.3700  0.3700  0.3700  0.3700  0.3700  0.3700  0.3300  0.3750  0.4200  0.4200  0.4200  0.4200  0.4200  0.4200  0.4200  0.4200  1.1000  1.1500  1.2000  1.2500  1.2500  1.2500  1.2500  1.2500  1.2500  1.2500 18.6625  0.4797  0.5119  0.4980  0.4515  0.4126  0.4490  0.4074  0.4293  0.3960
 1975 100   161   0.1100  0.1300  0.1500  0.2200  0.2200  0.2200  0.2200  0.2200  0.2200  0.2200  0.2800  0.3000  0.3200  0.3700  0.3700  0.3700  0.3700  0.3700  0.3700  0.3700  0.3300  0.3750  0.4200  0.4200  0.4200  0.4200  0.4200  0.4200  0.4200  0.4200  1.1000  1.1500  1.2000  1.2500  1.2500  1.2500  1.2500  1.2500  1.2500  1.2500 18.6074  0.4795  0.5103  0.4959  0.4495  0.4109  0.4472  0.4068  0.4291  0.3961
 1975 101   162   0.1100  0.1300  0.1500  0.2200  0.2200  0.2200  0.2200  0.2200  0.2200  0.2200  0.2800  0.3000  0.3200  0.3700  0.3700  0.3700  0.3700  0.3700  0.3700  0.3700  0.3300  0.3750  0.4200  0.4200  0.4200  0.4200  0.4200  0.4200  0.4200  0.4200  1.1000  1.1500  1.2000  1.2500  1.2500  1.2500  1.2500  1.2500  1.2500  1.2500 18.5846  0.4714  0.5035  0.4907  0.4455  0.4078  0.4437  0.4055  0.4283  0.3958
 1975 102   163   0.1100  0.1300  0.1500  0.2200  0.2200  0.2200  0.2200  0.2200  0.2200  0.2200  0.2800  0.3000  0.3200  0.3700  0.3700  0.3700  0.3700  0.3700  0.3700  0.3700  0.3300  0.3750  0.4200  0.4200  0.4200  0.4200  0.4200  0.4200  0.4200  0.4200  1.1000  1.1500  1.2000  1.2500  1.2500  1.2500  1.2500  1.2500  1.2500  1.2500 18.5496  0.4646  0.4969  0.4852  0.4409  0.4039  0.4392  0.4037  0.4270  0.3950
 1975 103   164   0.1100  0.1300  0.1500  0.2200  0.2200  0.2200  0.2200  0.2200  0.2200  0.2200  0.2800  0.3000  0.3200  0.3700  0.3700  0.3700  0.3700  0.3700  0.3700  0.3700  0.3300  0.3750  0.4200  0.4200  0.4200  0.4200  0.4200  0.4200  0.4200  0.4200  1.1000  1.1500  1.2000  1.2500  1.2500  1.2500  1.2500  1.2500  1.2500  1.2500 18.5076  0.4659  0.4961  0.4832  0.4384  0.4013  0.4353  0.4019  0.4254  0.3940
 1975 104   165   0.1100  0.1300  0.1500  0.2200  0.2200  0.2200  0.2200  0.2200  0.2200  0.2200  0.2800  0.3000  0.3200  0.3700  0.3700  0.3700  0.3700  0.3700  0.3700  0.3700  0.3300  0.3750  0.4200  0.4200  0.4200  0.4200  0.4200  0.4200  0.4200  0.4200  1.1000  1.1500  1.2000  1.2500  1.2500  1.2500  1.2500  1.2500  1.2500  1.2500 18.4299  0.4817  0.5090  0.4916  0.4434  0.4039  0.4364  0.4016  0.4245  0.3931
 1975 105   166   0.1100  0.1300  0.1500  0.2200  0.2200  0.2200  0.2200  0.2200  0.2200  0.2200  0.2800  0.3000  0.3200  0.3700  0.3700  0.3700  0.3700  0.3700  0.3700  0.3700  0.3300  0.3750  0.4200  0.4200  0.4200  0.4200  0.4200  0.4200  0.4200  0.4200  1.1000  1.1500  1.2000  1.2500  1.2500  1.2500  1.2500  1.2500  1.2500  1.2500 18.3741  0.4801  0.5097  0.4936  0.4457  0.4059  0.4385  0.4019  0.4242  0.3924
 1975 106   167   0.1100  0.1300  0.1500  0.2200  0.2200  0.2200  0.2200  0.2200  0.2200  0.2200  0.2800  0.3000  0.3200  0.3700  0.3700  0.3700  0.3700  0.3700  0.3700  0.3700  0.3300  0.3750  0.4200  0.4200  0.4200  0.4200  0.4200  0.4200  0.4200  0.4200  1.1000  1.1500  1.2000  1.2500  1.2500  1.2500  1.2500  1.2500  1.2500  1.2500 18.2799  0.4830  0.5128  0.4964  0.4483  0.4082  0.4412  0.4027  0.4244  0.3921
 1975 107   168   0.1100  0.1300  0.1500  0.2200  0.2200  0.2200  0.2200  0.2200  0.2200  0.2200  0.2800  0.3000  0.3200  0.3700  0.3700  0.3700  0.3700  0.3700  0.3700  0.3700  0.3300  0.3750  0.4200  0.4200  0.4200  0.4200  0.4200  0.4200  0.4200  0.4200  1.1000  1.1500  1.2000  1.2500  1.2500  1.2500  1.2500  1.2500  1.2500  1.2500 18.2538  0.4746  0.5065  0.4926  0.4461  0.4072  0.4410  0.4029  0.4246  0.3920
 1975 108   169   0.1100  0.1300  0.1500  0.2200  0.2200  0.2200  0.2200  0.2200  0.2200  0.2200  0.2800  0.3000  0.3200  0.3700  0.3700  0.3700  0.3700  0.3700  0.3700  0.3700  0.3300  0.3750  0.4200  0.4200  0.4200  0.4200  0.4200  0.4200  0.4200  0.4200  1.1000  1.1500  1.2000  1.2500  1.2500  1.2500  1.2500  1.2500  1.2500  1.2500 18.0371  0.5046  0.5341  0.5142  0.4628  0.4199  0.4543  0.4073  0.4272  0.3930
 1975 109   170   0.1100  0.1300  0.1500  0.2200  0.2200  0.2200  0.2200  0.2200  0.2200  0.2200  0.2800  0.3000  0.3200  0.3700  0.3700  0.3700  0.3700  0.3700  0.3700  0.3700  0.3300  0.3750  0.4200  0.4200  0.4200  0.4200  0.4200  0.4200  0.4200  0.4200  1.1000  1.1500  1.2000  1.2500  1.2500  1.2500  1.2500  1.2500  1.2500  1.2500 17.9825  0.4845  0.5191  0.5053  0.4585  0.4186  0.4561  0.4092  0.4294  0.3946
 1975 110   171   0.1100  0.1300  0.1500  0.2200  0.2200  0.2200  0.2200  0.2200  0.2200  0.2200  0.2800  0.3000  0.3200  0.3700  0.3700  0.3700  0.3700  0.3700  0.3700  0.3700  0.3300  0.3750  0.4200  0.4200  0.4200  0.4200  0.4200  0.4200  0.4200  0.4200  1.1000  1.1500  1.2000  1.2500  1.2500  1.2500  1.2500  1.2500  1.2500  1.2500 17.9298  0.4731  0.5080  0.4964  0.4516  0.4138  0.4520  0.4085  0.4300  0.3957
 1975 111   172   0.1100  0.1300  0.1500  0.2200  0.2200  0.2200  0.2200  0.2200  0.2200  0.2200  0.2800  0.3000  0.3200  0.3700  0.3700  0.3700  0.3700  0.3700  0.3700  0.3700  0.3300  0.3750  0.4200  0.4200  0.4200  0.4200  0.4200  0.4200  0.4200  0.4200  1.1000  1.1500  1.2000  1.2500  1.2500  1.2500  1.2500  1.2500  1.2500  1.2500 17.8905  0.4655  0.4999  0.4892  0.4454  0.4086  0.4462  0.4067  0.4293  0.3959
 1975 112   173   0.1100  0.1300  0.1500  0.2200  0.2200  0.2200  0.2200  0.2200  0.2200  0.2200  0.2800  0.3000  0.3200  0.3700  0.3700  0.3700  0.3700  0.3700  0.3700  0.3700  0.3300  0.3750  0.4200  0.4200  0.4200  0.4200  0.4200  0.4200  0.4200  0.4200  1.1000  1.1500  1.2000  1.2500  1.2500  1.2500  1.2500  1.2500  1.2500  1.2500 17.8284  0.4595  0.4935  0.4832  0.4400  0.4038  0.4402  0.4043  0.4277  0.3954
 1975 113   174   0.1100  0.1300  0.1500  0.2200  0.2200  0.2200  0.2200  0.2200  0.2200  0.2200  0.2800  0.3000  0.3200  0.3700  0.3700  0.3700  0.3700  0.3700  0.3700  0.3700  0.3300  0.3750  0.4200  0.4200  0.4200  0.4200  0.4200  0.4200  0.4200  0.4200  1.1000  1.1500  1.2000  1.2500  1.2500  1.2500  1.2500  1.2500  1.2500  1.2500 17.7920  0.4549  0.4884  0.4784  0.4354  0.3996  0.4346  0.4018  0.4258  0.3943
 1975 114   175   0.1100  0.1300  0.1500  0.2200  0.2200  0.2200  0.2200  0.2200  0.2200  0.2200  0.2800  0.3000  0.3200  0.3700  0.3700  0.3700  0.3700  0.3700  0.3700  0.3700  0.3300  0.3750  0.4200  0.4200  0.4200  0.4200  0.4200  0.4200  0.4200  0.4200  1.1000  1.1500  1.2000  1.2500  1.2500  1.2500  1.2500  1.2500  1.2500  1.2500 17.7255  0.4507  0.4839  0.4740  0.4314  0.3958  0.4293  0.3994  0.4236  0.3928
 1975 115   176   0.1100  0.1300  0.1500  0.2200  0.2200  0.2200  0.2200  0.2200  0.2200  0.2200  0.2800  0.3000  0.3200  0.3700  0.3700  0.3700  0.3700  0.3700  0.3700  0.3700  0.3300  0.3750  0.4200  0.4200  0.4200  0.4200  0.4200  0.4200  0.4200  0.4200  1.1000  1.1500  1.2000  1.2500  1.2500  1.2500  1.2500  1.2500  1.2500  1.2500 17.6896  0.4526  0.4838  0.4725  0.4291  0.3931  0.4252  0.3972  0.4215  0.3912
 1975 116   177   0.1100  0.1300  0.1500  0.2200  0.2200  0.2200  0.2200  0.2200  0.2200  0.2200  0.2800  0.3000  0.3200  0.3700  0.3700  0.3700  0.3700  0.3700  0.3700  0.3700  0.3300  0.3750  0.4200  0.4200  0.4200  0.4200  0.4200  0.4200  0.4200  0.4200  1.1000  1.1500  1.2000  1.2500  1.2500  1.2500  1.2500  1.2500  1.2500  1.2500 17.6505  0.4482  0.4804  0.4697  0.4265  0.3906  0.4215  0.3953  0.4195  0.3895
 1975 117   178   0.1100  0.1300  0.1500  0.2200  0.2200  0.2200  0.2200  0.2200  0.2200  0.2200  0.2800  0.3000  0.3200  0.3700  0.3700  0.3700  0.3700  0.3700  0.3700  0.3700  0.3300  0.3750  0.4200  0.4200  0.4200  0.4200  0.4200  0.4200  0.4200  0.4200  1.1000  1.1500  1.2000  1.2500  1.2500  1.2500  1.2500  1.2500  1.2500  1.2500 17.6526  0.4449  0.4771  0.4669  0.4239  0.3881  0.4179  0.3934  0.4176  0.3878
 1975 118   179   0.1100  0.1300  0.1500  0.2200  0.2200  0.2200  0.2200  0.2200  0.2200  0.2200  0.2800  0.3000  0.3200  0.3700  0.3700  0.3700  0.3700  0.3700  0.3700  0.3700  0.3300  0.3750  0.4200  0.4200  0.4200  0.4200  0.4200  0.4200  0.4200  0.4200  1.1000  1.1500  1.2000  1.2500  1.2500  1.2500  1.2500  1.2500  1.2500  1.2500 17.6074  0.4417  0.4739  0.4639  0.4212  0.3856  0.4144  0.3916  0.4156  0.3860
 1975 119   180   0.1100  0.1300  0.1500  0.2200  0.2200  0.2200  0.2200  0.2200  0.2200  0.2200  0.2800  0.3000  0.3200  0.3700  0.3700  0.3700  0.3700  0.3700  0.3700  0.3700  0.3300  0.3750  0.4200  0.4200  0.4200  0.4200  0.4200  0.4200  0.4200  0.4200  1.1000  1.1500  1.2000  1.2500  1.2500  1.2500  1.2500  1.2500  1.2500  1.2500 17.5665  0.4418  0.4728  0.4622  0.4192  0.3835  0.4112  0.3899  0.4138  0.3842
 1975 120   181   0.1100  0.1300  0.1500  0.2200  0.2200  0.2200  0.2200  0.2200  0.2200  0.2200  0.2800  0.3000  0.3200  0.3700  0.3700  0.3700  0.3700  0.3700  0.3700  0.3700  0.3300  0.3750  0.4200  0.4200  0.4200  0.4200  0.4200  0.4200  0.4200  0.4200  1.1000  1.1500  1.2000  1.2500  1.2500  1.2500  1.2500  1.2500  1.2500  1.2500 17.5009  0.4462  0.4753  0.4629  0.4188  0.3824  0.4090  0.3884  0.4121  0.3825
 1975 121   182   0.1100  0.1300  0.1500  0.2200  0.2200  0.2200  0.2200  0.2200  0.2200  0.2200  0.2800  0.3000  0.3200  0.3700  0.3700  0.3700  0.3700  0.3700  0.3700  0.3700  0.3300  0.3750  0.4200  0.4200  0.4200  0.4200  0.4200  0.4200  0.4200  0.4200  1.1000  1.1500  1.2000  1.2500  1.2500  1.2500  1.2500  1.2500  1.2500  1.2500 17.4753  0.4418  0.4729  0.4615  0.4176  0.3812  0.4070  0.3872  0.4105  0.3809
 1975 122   183   0.1100  0.1300  0.1500  0.2200  0.2200  0.2200  0.2200  0.2200  0.2200  0.2200  0.2800  0.3000  0.3200  0.3700  0.3700  0.3700  0.3700  0.3700  0.3700  0.3700  0.3300  0.3750  0.4200  0.4200  0.4200  0.4200  0.4200  0.4200  0.4200  0.4200  1.1000  1.1500  1.2000  1.2500  1.2500  1.2500  1.2500  1.2500  1.2500  1.2500 17.3751  0.4623  0.4885  0.4712  0.4233  0.3842  0.4085  0.3868  0.4094  0.3794
 1975 123   184   0.1100  0.1300  0.1500  0.2200  0.2200  0.2200  0.2200  0.2200  0.2200  0.2200  0.2800  0.3000  0.3200  0.3700  0.3700  0.3700  0.3700  0.3700  0.3700  0.3700  0.3300  0.3750  0.4200  0.4200  0.4200  0.4200  0.4200  0.4200  0.4200  0.4200  1.1000  1.1500  1.2000  1.2500  1.2500  1.2500  1.2500  1.2500  1.2500  1.2500 17.3105  0.4527  0.4840  0.4704  0.4240  0.3853  0.4096  0.3868  0.4086  0.3782
 1975 124   185   0.1100  0.1300  0.1500  0.2200  0.2200  0.2200  0.2200  0.2200  0.2200  0.2200  0.2800  0.3000  0.3200  0.3700  0.3700  0.3700  0.3700  0.3700  0.3700  0.3700  0.3300  0.3750  0.4200  0.4200  0.4200  0.4200  0.4200  0.4200  0.4200  0.4200  1.1000  1.1500  1.2000  1.2500  1.2500  1.2500  1.2500  1.2500  1.2500  1.2500 17.2466  0.4460  0.4787  0.4670  0.4222  0.3844  0.4093  0.3865  0.4080  0.3771
 1975 125   186   0.1100  0.1300  0.1500  0.2200  0.2200  0.2200  0.2200  0.2200  0.2200  0.2200  0.2800  0.3000  0.3200  0.3700  0.3700  0.3700  0.3700  0.3700  0.3700  0.3700  0.3300  0.3750  0.4200  0.4200  0.4200  0.4200  0.4200  0.4200  0.4200  0.4200  1.1000  1.1500  1.2000  1.2500  1.2500  1.2500  1.2500  1.2500  1.2500  1.2500 17.1941  0.4412  0.4741  0.4636  0.4197  0.3827  0.4078  0.3858  0.4072  0.3761
 1975 126   187   0.1100  0.1300  0.1500  0.2200  0.2200  0.2200  0.2200  0.2200  0.2200  0.2200  0.2800  0.3000  0.3200  0.3700  0.3700  0.3700  0.3700  0.3700  0.3700  0.3700  0.3300  0.3750  0.4200  0.4200  0.4200  0.4200  0.4200  0.4200  0.4200  0.4200  1.1000  1.1500  1.2000  1.2500  1.2500  1.2500  1.2500  1.2500  1.2500  1.2500 17.1378  0.4373  0.4703  0.4603  0.4171  0.3807  0.4056  0.3849  0.4064  0.3752
 1975 127   188   0.1100  0.1300  0.1500  0.2200  0.2200  0.2200  0.2200  0.2200  0.2200  0.2200  0.2800  0.3000  0.3200  0.3700  0.3700  0.3700  0.3700  0.3700  0.3700  0.3700  0.3300  0.3750  0.4200  0.4200  0.4200  0.4200  0.4200  0.4200  0.4200  0.4200  1.1000  1.1500  1.2000  1.2500  1.2500  1.2500  1.2500  1.2500  1.2500  1.2500 16.9338  0.4868  0.5140  0.4921  0.4391  0.3952  0.4177  0.3878  0.4071  0.3748
[...]
 1975 168   229   0.1100  0.1300  0.1500  0.2200  0.2200  0.2200  0.2200  0.2200  0.2200  0.2200  0.2800  0.3000  0.3200  0.3700  0.3700  0.3700  0.3700  0.3700  0.3700  0.3700  0.3300  0.3750  0.4200  0.4200  0.4200  0.4200  0.4200  0.4200  0.4200  0.4200  1.1000  1.1500  1.2000  1.2500  1.2500  1.2500  1.2500  1.2500  1.2500  1.2500  0.2134  0.1688  0.2102  0.2892  0.2919  0.3156  0.3128  0.3479  0.3627  0.3680
 1975 169   230   0.1100  0.1300  0.1500  0.2200  0.2200  0.2200  0.2200  0.2200  0.2200  0.2200  0.2800  0.3000  0.3200  0.3700  0.3700  0.3700  0.3700  0.3700  0.3700  0.3700  0.3300  0.3750  0.4200  0.4200  0.4200  0.4200  0.4200  0.4200  0.4200  0.4200  1.1000  1.1500  1.2000  1.2500  1.2500  1.2500  1.2500  1.2500  1.2500  1.2500  0.1910  0.1670  0.2056  0.2870  0.2894  0.3129  0.3102  0.3469  0.3624  0.3679
 1975 170   231   0.1100  0.1300  0.1500  0.2200  0.2200  0.2200  0.2200  0.2200  0.2200  0.2200  0.2800  0.3000  0.3200  0.3700  0.3700  0.3700  0.3700  0.3700  0.3700  0.3700  0.3300  0.3750  0.4200  0.4200  0.4200  0.4200  0.4200  0.4200  0.4200  0.4200  1.1000  1.1500  1.2000  1.2500  1.2500  1.2500  1.2500  1.2500  1.2500  1.2500  0.1712  0.1654  0.2025  0.2852  0.2874  0.3104  0.3077  0.3460  0.3620  0.3678
 1975 171   232   0.1100  0.1300  0.1500  0.2200  0.2200  0.2200  0.2200  0.2200  0.2200  0.2200  0.2800  0.3000  0.3200  0.3700  0.3700  0.3700  0.3700  0.3700  0.3700  0.3700  0.3300  0.3750  0.4200  0.4200  0.4200  0.4200  0.4200  0.4200  0.4200  0.4200  1.1000  1.1500  1.2000  1.2500  1.2500  1.2500  1.2500  1.2500  1.2500  1.2500  0.1509  0.1637  0.1992  0.2829  0.2849  0.3069  0.3042  0.3447  0.3616  0.3677
 1975 172   233   0.1100  0.1300  0.1500  0.2200  0.2200  0.2200  0.2200  0.2200  0.2200  0.2200  0.2800  0.3000  0.3200  0.3700  0.3700  0.3700  0.3700  0.3700  0.3700  0.3700  0.3300  0.3750  0.4200  0.4200  0.4200  0.4200  0.4200  0.4200  0.4200  0.4200  1.1000  1.1500  1.2000  1.2500  1.2500  1.2500  1.2500  1.2500  1.2500  1.2500  0.1376  0.1620  0.1962  0.2807  0.2825  0.3028  0.3002  0.3432  0.3611  0.3676
 1975 173   234   0.1100  0.1300  0.1500  0.2200  0.2200  0.2200  0.2200  0.2200  0.2200  0.2200  0.2800  0.3000  0.3200  0.3700  0.3700  0.3700  0.3700  0.3700  0.3700  0.3700  0.3300  0.3750  0.4200  0.4200  0.4200  0.4200  0.4200  0.4200  0.4200  0.4200  1.1000  1.1500  1.2000  1.2500  1.2500  1.2500  1.2500  1.2500  1.2500  1.2500  0.1271  0.1602  0.1935  0.2784  0.2801  0.2981  0.2956  0.3415  0.3605  0.3675
 1975 174   235   0.1100  0.1300  0.1500  0.2200  0.2200  0.2200  0.2200  0.2200  0.2200  0.2200  0.2800  0.3000  0.3200  0.3700  0.3700  0.3700  0.3700  0.3700  0.3700  0.3700  0.3300  0.3750  0.4200  0.4200  0.4200  0.4200  0.4200  0.4200  0.4200  0.4200  1.1000  1.1500  1.2000  1.2500  1.2500  1.2500  1.2500  1.2500  1.2500  1.2500  0.2685  0.1610  0.1924  0.2774  0.2791  0.2960  0.2938  0.3406  0.3602  0.3674
 1975 175   236   0.1100  0.1300  0.1500  0.2200  0.2200  0.2200  0.2200  0.2200  0.2200  0.2200  0.2800  0.3000  0.3200  0.3700  0.3700  0.3700  0.3700  0.3700  0.3700  0.3700  0.3300  0.3750  0.4200  0.4200  0.4200  0.4200  0.4200  0.4200  0.4200  0.4200  1.1000  1.1500  1.2000  1.2500  1.2500  1.2500  1.2500  1.2500  1.2500  1.2500  0.2360  0.1593  0.1902  0.2754  0.2770  0.2919  0.2903  0.3387  0.3595  0.3672
 1975 176   237   0.1100  0.1300  0.1500  0.2200  0.2200  0.2200  0.2200  0.2200  0.2200  0.2200  0.2800  0.3000  0.3200  0.3700  0.3700  0.3700  0.3700  0.3700  0.3700  0.3700  0.3300  0.3750  0.4200  0.4200  0.4200  0.4200  0.4200  0.4200  0.4200  0.4200  1.1000  1.1500  1.2000  1.2500  1.2500  1.2500  1.2500  1.2500  1.2500  1.2500  0.2051  0.1576  0.1882  0.2735  0.2749  0.2883  0.2871  0.3366  0.3588  0.3670
 1975 177   238   0.1100  0.1300  0.1500  0.2200  0.2200  0.2200  0.2200  0.2200  0.2200  0.2200  0.2800  0.3000  0.3200  0.3700  0.3700  0.3700  0.3700  0.3700  0.3700  0.3700  0.3300  0.3750  0.4200  0.4200  0.4200  0.4200  0.4200  0.4200  0.4200  0.4200  1.1000  1.1500  1.2000  1.2500  1.2500  1.2500  1.2500  1.2500  1.2500  1.2500  0.1777  0.1561  0.1865  0.2718  0.2732  0.2857  0.2847  0.3346  0.3581  0.3668
 1975 178   239   0.1100  0.1300  0.1500  0.2200  0.2200  0.2200  0.2200  0.2200  0.2200  0.2200  0.2800  0.3000  0.3200  0.3700  0.3700  0.3700  0.3700  0.3700  0.3700  0.3700  0.3300  0.3750  0.4200  0.4200  0.4200  0.4200  0.4200  0.4200  0.4200  0.4200  1.1000  1.1500  1.2000  1.2500  1.2500  1.2500  1.2500  1.2500  1.2500  1.2500  0.1562  0.1549  0.1854  0.2707  0.2721  0.2840  0.2832  0.3332  0.3576  0.3667
 1975 179   240   0.1100  0.1300  0.1500  0.2200  0.2200  0.2200  0.2200  0.2200  0.2200  0.2200  0.2800  0.3000  0.3200  0.3700  0.3700  0.3700  0.3700  0.3700  0.3700  0.3700  0.3300  0.3750  0.4200  0.4200  0.4200  0.4200  0.4200  0.4200  0.4200  0.4200  1.1000  1.1500  1.2000  1.2500  1.2500  1.2500  1.2500  1.2500  1.2500  1.2500  0.1418  0.1539  0.1845  0.2699  0.2712  0.2829  0.2821  0.3321  0.3572  0.3666
 1975 180   241   0.1100  0.1300  0.1500  0.2200  0.2200  0.2200  0.2200  0.2200  0.2200  0.2200  0.2800  0.3000  0.3200  0.3700  0.3700  0.3700  0.3700  0.3700  0.3700  0.3700  0.3300  0.3750  0.4200  0.4200  0.4200  0.4200  0.4200  0.4200  0.4200  0.4200  1.1000  1.1500  1.2000  1.2500  1.2500  1.2500  1.2500  1.2500  1.2500  1.2500  0.1304  0.1527  0.1832  0.2685  0.2699  0.2810  0.2803  0.3301  0.3565  0.3664
 1975 181   242   0.1100  0.1300  0.1500  0.2200  0.2200  0.2200  0.2200  0.2200  0.2200  0.2200  0.2800  0.3000  0.3200  0.3700  0.3700  0.3700  0.3700  0.3700  0.3700  0.3700  0.3300  0.3750  0.4200  0.4200  0.4200  0.4200  0.4200  0.4200  0.4200  0.4200  1.1000  1.1500  1.2000  1.2500  1.2500  1.2500  1.2500  1.2500  1.2500  1.2500  0.1208  0.1513  0.1818  0.2670  0.2683  0.2788  0.2783  0.3275  0.3556  0.3661
 1975 182   243   0.1100  0.1300  0.1500  0.2200  0.2200  0.2200  0.2200  0.2200  0.2200  0.2200  0.2800  0.3000  0.3200  0.3700  0.3700  0.3700  0.3700  0.3700  0.3700  0.3700  0.3300  0.3750  0.4200  0.4200  0.4200  0.4200  0.4200  0.4200  0.4200  0.4200  1.1000  1.1500  1.2000  1.2500  1.2500  1.2500  1.2500  1.2500  1.2500  1.2500  0.1124  0.1499  0.1801  0.2652  0.2664  0.2764  0.2760  0.3242  0.3545  0.3658
 1975 183   244   0.1100  0.1300  0.1500  0.2200  0.2200  0.2200  0.2200  0.2200  0.2200  0.2200  0.2800  0.3000  0.3200  0.3700  0.3700  0.3700  0.3700  0.3700  0.3700  0.3700  0.3300  0.3750  0.4200  0.4200  0.4200  0.4200  0.4200  0.4200  0.4200  0.4200  1.1000  1.1500  1.2000  1.2500  1.2500  1.2500  1.2500  1.2500  1.2500  1.2500  0.1050  0.1485  0.1785  0.2634  0.2646  0.2741  0.2738  0.3206  0.3532  0.3655
 1975 184   245   0.1100  0.1300  0.1500  0.2200  0.2200  0.2200  0.2200  0.2200  0.2200  0.2200  0.2800  0.3000  0.3200  0.3700  0.3700  0.3700  0.3700  0.3700  0.3700  0.3700  0.3300  0.3750  0.4200  0.4200  0.4200  0.4200  0.4200  0.4200  0.4200  0.4200  1.1000  1.1500  1.2000  1.2500  1.2500  1.2500  1.2500  1.2500  1.2500  1.2500  0.0984  0.1474  0.1774  0.2622  0.2634  0.2726  0.2723  0.3178  0.3522  0.3652
 1975 185   246   0.1100  0.1300  0.1500  0.2200  0.2200  0.2200  0.2200  0.2200  0.2200  0.2200  0.2800  0.3000  0.3200  0.3700  0.3700  0.3700  0.3700  0.3700  0.3700  0.3700  0.3300  0.3750  0.4200  0.4200  0.4200  0.4200  0.4200  0.4200  0.4200  0.4200  1.1000  1.1500  1.2000  1.2500  1.2500  1.2500  1.2500  1.2500  1.2500  1.2500  0.0924  0.1465  0.1767  0.2614  0.2626  0.2717  0.2715  0.3160  0.3516  0.3650
 1975 186   247   0.1100  0.1300  0.1500  0.2200  0.2200  0.2200  0.2200  0.2200  0.2200  0.2200  0.2800  0.3000  0.3200  0.3700  0.3700  0.3700  0.3700  0.3700  0.3700  0.3700  0.3300  0.3750  0.4200  0.4200  0.4200  0.4200  0.4200  0.4200  0.4200  0.4200  1.1000  1.1500  1.2000  1.2500  1.2500  1.2500  1.2500  1.2500  1.2500  1.2500  0.0869  0.1455  0.1759  0.2606  0.2618  0.2708  0.2706  0.3141  0.3510  0.3648
 1975 187   248   0.1100  0.1300  0.1500  0.2200  0.2200  0.2200  0.2200  0.2200  0.2200  0.2200  0.2800  0.3000  0.3200  0.3700  0.3700  0.3700  0.3700  0.3700  0.3700  0.3700  0.3300  0.3750  0.4200  0.4200  0.4200  0.4200  0.4200  0.4200  0.4200  0.4200  1.1000  1.1500  1.2000  1.2500  1.2500  1.2500  1.2500  1.2500  1.2500  1.2500  0.0820  0.1444  0.1747  0.2593  0.2605  0.2692  0.2691  0.3104  0.3497  0.3645
 1975 188   249   0.1100  0.1300  0.1500  0.2200  0.2200  0.2200  0.2200  0.2200  0.2200  0.2200  0.2800  0.3000  0.3200  0.3700  0.3700  0.3700  0.3700  0.3700  0.3700  0.3700  0.3300  0.3750  0.4200  0.4200  0.4200  0.4200  0.4200  0.4200  0.4200  0.4200  1.1000  1.1500  1.2000  1.2500  1.2500  1.2500  1.2500  1.2500  1.2500  1.2500  0.1297  0.1434  0.1738  0.2582  0.2594  0.2680  0.2679  0.3074  0.3486  0.3642
 1975 189   250   0.1100  0.1300  0.1500  0.2200  0.2200  0.2200  0.2200  0.2200  0.2200  0.2200  0.2800  0.3000  0.3200  0.3700  0.3700  0.3700  0.3700  0.3700  0.3700  0.3700  0.3300  0.3750  0.4200  0.4200  0.4200  0.4200  0.4200  0.4200  0.4200  0.4200  1.1000  1.1500  1.2000  1.2500  1.2500  1.2500  1.2500  1.2500  1.2500  1.2500  0.1201  0.1425  0.1730  0.2573  0.2585  0.2670  0.2669  0.3048  0.3477  0.3639
 1975 190   251   0.1100  0.1300  0.1500  0.2200  0.2200  0.2200  0.2200  0.2200  0.2200  0.2200  0.2800  0.3000  0.3200  0.3700  0.3700  0.3700  0.3700  0.3700  0.3700  0.3700  0.3300  0.3750  0.4200  0.4200  0.4200  0.4200  0.4200  0.4200  0.4200  0.4200  1.1000  1.1500  1.2000  1.2500  1.2500  1.2500  1.2500  1.2500  1.2500  1.2500  0.1136  0.1416  0.1723  0.2566  0.2578  0.2662  0.2662  0.3025  0.3469  0.3637
 1975 191   252   0.1100  0.1300  0.1500  0.2200  0.2200  0.2200  0.2200  0.2200  0.2200  0.2200  0.2800  0.3000  0.3200  0.3700  0.3700  0.3700  0.3700  0.3700  0.3700  0.3700  0.3300  0.3750  0.4200  0.4200  0.4200  0.4200  0.4200  0.4200  0.4200  0.4200  1.1000  1.1500  1.2000  1.2500  1.2500  1.2500  1.2500  1.2500  1.2500  1.2500  0.1098  0.1408  0.1717  0.2559  0.2571  0.2654  0.2654  0.3002  0.3461  0.3635
 1975 192   253   0.1100  0.1300  0.1500  0.2200  0.2200  0.2200  0.2200  0.2200  0.2200  0.2200  0.2800  0.3000  0.3200  0.3700  0.3700  0.3700  0.3700  0.3700  0.3700  0.3700  0.3300  0.3750  0.4200  0.4200  0.4200  0.4200  0.4200  0.4200  0.4200  0.4200  1.1000  1.1500  1.2000  1.2500  1.2500  1.2500  1.2500  1.2500  1.2500  1.2500  0.1027  0.1399  0.1709  0.2550  0.2562  0.2644  0.2644  0.2971  0.3450  0.3632
 1975 193   254   0.1100  0.1300  0.1500  0.2200  0.2200  0.2200  0.2200  0.2200  0.2200  0.2200  0.2800  0.3000  0.3200  0.3700  0.3700  0.3700  0.3700  0.3700  0.3700  0.3700  0.3300  0.3750  0.4200  0.4200  0.4200  0.4200  0.4200  0.4200  0.4200  0.4200  1.1000  1.1500  1.2000  1.2500  1.2500  1.2500  1.2500  1.2500  1.2500  1.2500  0.1552  0.1392  0.1704  0.2544  0.2557  0.2639  0.2639  0.2958  0.3444  0.3630
 1975 194   255   0.1100  0.1300  0.1500  0.2200  0.2200  0.2200  0.2200  0.2200  0.2200  0.2200  0.2800  0.3000  0.3200  0.3700  0.3700  0.3700  0.3700  0.3700  0.3700  0.3700  0.3300  0.3750  0.4200  0.4200  0.4200  0.4200  0.4200  0.4200  0.4200  0.4200  1.1000  1.1500  1.2000  1.2500  1.2500  1.2500  1.2500  1.2500  1.2500  1.2500  0.1376  0.1384  0.1697  0.2537  0.2550  0.2631  0.2632  0.2940  0.3435  0.3628
 1975 195   256   0.1100  0.1300  0.1500  0.2200  0.2200  0.2200  0.2200  0.2200  0.2200  0.2200  0.2800  0.3000  0.3200  0.3700  0.3700  0.3700  0.3700  0.3700  0.3700  0.3700  0.3300  0.3750  0.4200  0.4200  0.4200  0.4200  0.4200  0.4200  0.4200  0.4200  1.1000  1.1500  1.2000  1.2500  1.2500  1.2500  1.2500  1.2500  1.2500  1.2500  0.1355  0.1375  0.1690  0.2529  0.2542  0.2622  0.2622  0.2917  0.3422  0.3624
 1975 196   257   0.1100  0.1300  0.1500  0.2200  0.2200  0.2200  0.2200  0.2200  0.2200  0.2200  0.2800  0.3000  0.3200  0.3700  0.3700  0.3700  0.3700  0.3700  0.3700  0.3700  0.3300  0.3750  0.4200  0.4200  0.4200  0.4200  0.4200  0.4200  0.4200  0.4200  1.1000  1.1500  1.2000  1.2500  1.2500  1.2500  1.2500  1.2500  1.2500  1.2500  0.1495  0.1367  0.1683  0.2521  0.2534  0.2613  0.2614  0.2900  0.3411  0.3621
 1975 197   258   0.1100  0.1300  0.1500  0.2200  0.2200  0.2200  0.2200  0.2200  0.2200  0.2200  0.2800  0.3000  0.3200  0.3700  0.3700  0.3700  0.3700  0.3700  0.3700  0.3700  0.3300  0.3750  0.4200  0.4200  0.4200  0.4200  0.4200  0.4200  0.4200  0.4200  1.1000  1.1500  1.2000  1.2500  1.2500  1.2500  1.2500  1.2500  1.2500  1.2500  0.1343  0.1359  0.1677  0.2514  0.2527  0.2606  0.2607  0.2885  0.3401  0.3618
 1975 198   259   0.1100  0.1300  0.1500  0.2200  0.2200  0.2200  0.2200  0.2200  0.2200  0.2200  0.2800  0.3000  0.3200  0.3700  0.3700  0.3700  0.3700  0.3700  0.3700  0.3700  0.3300  0.3750  0.4200  0.4200  0.4200  0.4200  0.4200  0.4200  0.4200  0.4200  1.1000  1.1500  1.2000  1.2500  1.2500  1.2500  1.2500  1.2500  1.2500  1.2500  0.2651  0.1361  0.1671  0.2508  0.2521  0.2600  0.2601  0.2873  0.3391  0.3615
 1975 199   260   0.1100  0.1300  0.1500  0.2200  0.2200  0.2200  0.2200  0.2200  0.2200  0.2200  0.2800  0.3000  0.3200  0.3700  0.3700  0.3700  0.3700  0.3700  0.3700  0.3700  0.3300  0.3750  0.4200  0.4200  0.4200  0.4200  0.4200  0.4200  0.4200  0.4200  1.1000  1.1500  1.2000  1.2500  1.2500  1.2500  1.2500  1.2500  1.2500  1.2500  0.2340  0.1354  0.1667  0.2503  0.2517  0.2595  0.2596  0.2864  0.3384  0.3614
 1975 200   261   0.1100  0.1300  0.1500  0.2200  0.2200  0.2200  0.2200  0.2200  0.2200  0.2200  0.2800  0.3000  0.3200  0.3700  0.3700  0.3700  0.3700  0.3700  0.3700  0.3700  0.3300  0.3750  0.4200  0.4200  0.4200  0.4200  0.4200  0.4200  0.4200  0.4200  1.1000  1.1500  1.2000  1.2500  1.2500  1.2500  1.2500  1.2500  1.2500  1.2500  0.2105  0.1347  0.1663  0.2499  0.2514  0.2592  0.2594  0.2860  0.3380  0.3612
 1975 201   262   0.1100  0.1300  0.1500  0.2200  0.2200  0.2200  0.2200  0.2200  0.2200  0.2200  0.2800  0.3000  0.3200  0.3700  0.3700  0.3700  0.3700  0.3700  0.3700  0.3700  0.3300  0.3750  0.4200  0.4200  0.4200  0.4200  0.4200  0.4200  0.4200  0.4200  1.1000  1.1500  1.2000  1.2500  1.2500  1.2500  1.2500  1.2500  1.2500  1.2500  0.1870  0.1341  0.1660  0.2496  0.2511  0.2589  0.2591  0.2855  0.3376  0.3611
 1975 202   263   0.1100  0.1300  0.1500  0.2200  0.2200  0.2200  0.2200  0.2200  0.2200  0.2200  0.2800  0.3000  0.3200  0.3700  0.3700  0.3700  0.3700  0.3700  0.3700  0.3700  0.3300  0.3750  0.4200  0.4200  0.4200  0.4200  0.4200  0.4200  0.4200  0.4200  1.1000  1.1500  1.2000  1.2500  1.2500  1.2500  1.2500  1.2500  1.2500  1.2500  0.1666  0.1334  0.1656  0.2492  0.2506  0.2585  0.2586  0.2847  0.3369  0.3609
 1975 203   264   0.1100  0.1300  0.1500  0.2200  0.2200  0.2200  0.2200  0.2200  0.2200  0.2200  0.2800  0.3000  0.3200  0.3700  0.3700  0.3700  0.3700  0.3700  0.3700  0.3700  0.3300  0.3750  0.4200  0.4200  0.4200  0.4200  0.4200  0.4200  0.4200  0.4200  1.1000  1.1500  1.2000  1.2500  1.2500  1.2500  1.2500  1.2500  1.2500  1.2500  0.1522  0.1328  0.1652  0.2488  0.2503  0.2582  0.2584  0.2843  0.3364  0.3608
 1975 204   265   0.1100  0.1300  0.1500  0.2200  0.2200  0.2200  0.2200  0.2200  0.2200  0.2200  0.2800  0.3000  0.3200  0.3700  0.3700  0.3700  0.3700  0.3700  0.3700  0.3700  0.3300  0.3750  0.4200  0.4200  0.4200  0.4200  0.4200  0.4200  0.4200  0.4200  1.1000  1.1500  1.2000  1.2500  1.2500  1.2500  1.2500  1.2500  1.2500  1.2500  0.1483  0.1321  0.1648  0.2483  0.2499  0.2577  0.2579  0.2835  0.3356  0.3606
 1975 205   266   0.1100  0.1300  0.1500  0.2200  0.2200  0.2200  0.2200  0.2200  0.2200  0.2200  0.2800  0.3000  0.3200  0.3700  0.3700  0.3700  0.3700  0.3700  0.3700  0.3700  0.3300  0.3750  0.4200  0.4200  0.4200  0.4200  0.4200  0.4200  0.4200  0.4200  1.1000  1.1500  1.2000  1.2500  1.2500  1.2500  1.2500  1.2500  1.2500  1.2500  0.1668  0.1315  0.1644  0.2478  0.2494  0.2572  0.2574  0.2827  0.3347  0.3603
 1975 206   267   0.1100  0.1300  0.1500  0.2200  0.2200  0.2200  0.2200  0.2200  0.2200  0.2200  0.2800  0.3000  0.3200  0.3700  0.3700  0.3700  0.3700  0.3700  0.3700  0.3700  0.3300  0.3750  0.4200  0.4200  0.4200  0.4200  0.4200  0.4200  0.4200  0.4200  1.1000  1.1500  1.2000  1.2500  1.2500  1.2500  1.2500  1.2500  1.2500  1.2500  0.1451  0.1309  0.1640  0.2475  0.2491  0.2569  0.2571  0.2822  0.3342  0.3602
 1975 207   268   0.1100  0.1300  0.1500  0.2200  0.2200  0.2200  0.2200  0.2200  0.2200  0.2200  0.2800  0.3000  0.3200  0.3700  0.3700  0.3700  0.3700  0.3700  0.3700  0.3700  0.3300  0.3750  0.4200  0.4200  0.4200  0.4200  0.4200  0.4200  0.4200  0.4200  1.1000  1.1500  1.2000  1.2500  1.2500  1.2500  1.2500  1.2500  1.2500  1.2500  0.1313  0.1302  0.1635  0.2468  0.2485  0.2562  0.2564  0.2811  0.3329  0.3598
 1975 208   269   0.1100  0.1300  0.1500  0.2200  0.2200  0.2200  0.2200  0.2200  0.2200  0.2200  0.2800  0.3000  0.3200  0.3700  0.3700  0.3700  0.3700  0.3700  0.3700  0.3700  0.3300  0.3750  0.4200  0.4200  0.4200  0.4200  0.4200  0.4200  0.4200  0.4200  1.1000  1.1500  1.2000  1.2500  1.2500  1.2500  1.2500  1.2500  1.2500  1.2500  0.1214  0.1296  0.1630  0.2463  0.2479  0.2556  0.2559  0.2802  0.3318  0.3595
 1975 209   270   0.1100  0.1300  0.1500  0.2200  0.2200  0.2200  0.2200  0.2200  0.2200  0.2200  0.2800  0.3000  0.3200  0.3700  0.3700  0.3700  0.3700  0.3700  0.3700  0.3700  0.3300  0.3750  0.4200  0.4200  0.4200  0.4200  0.4200  0.4200  0.4200  0.4200  1.1000  1.1500  1.2000  1.2500  1.2500  1.2500  1.2500  1.2500  1.2500  1.2500  0.1128  0.1291  0.1624  0.2456  0.2472  0.2549  0.2552  0.2791  0.3303  0.3591
 1975 210   271   0.1100  0.1300  0.1500  0.2200  0.2200  0.2200  0.2200  0.2200  0.2200  0.2200  0.2800  0.3000  0.3200  0.3700  0.3700  0.3700  0.3700  0.3700  0.3700  0.3700  0.3300  0.3750  0.4200  0.4200  0.4200  0.4200  0.4200  0.4200  0.4200  0.4200  1.1000  1.1500  1.2000  1.2500  1.2500  1.2500  1.2500  1.2500  1.2500  1.2500  0.1054  0.1286  0.1619  0.2450  0.2466  0.2542  0.2545  0.2781  0.3289  0.3587
 1975 211   272   0.1100  0.1300  0.1500  0.2200  0.2200  0.2200  0.2200  0.2200  0.2200  0.2200  0.2800  0.3000  0.3200  0.3700  0.3700  0.3700  0.3700  0.3700  0.3700  0.3700  0.3300  0.3750  0.4200  0.4200  0.4200  0.4200  0.4200  0.4200  0.4200  0.4200  1.1000  1.1500  1.2000  1.2500  1.2500  1.2500  1.2500  1.2500  1.2500  1.2500  0.0988  0.1280  0.1614  0.2444  0.2460  0.2536  0.2539  0.2772  0.3275  0.3583
 1975 212   273   0.1100  0.1300  0.1500  0.2200  0.2200  0.2200  0.2200  0.2200  0.2200  0.2200  0.2800  0.3000  0.3200  0.3700  0.3700  0.3700  0.3700  0.3700  0.3700  0.3700  0.3300  0.3750  0.4200  0.4200  0.4200  0.4200  0.4200  0.4200  0.4200  0.4200  1.1000  1.1500  1.2000  1.2500  1.2500  1.2500  1.2500  1.2500  1.2500  1.2500  0.0927  0.1275  0.1610  0.2440  0.2457  0.2533  0.2536  0.2768  0.3269  0.3581
 1975 213   274   0.1100  0.1300  0.1500  0.2200  0.2200  0.2200  0.2200  0.2200  0.2200  0.2200  0.2800  0.3000  0.3200  0.3700  0.3700  0.3700  0.3700  0.3700  0.3700  0.3700  0.3300  0.3750  0.4200  0.4200  0.4200  0.4200  0.4200  0.4200  0.4200  0.4200  1.1000  1.1500  1.2000  1.2500  1.2500  1.2500  1.2500  1.2500  1.2500  1.2500  0.0872  0.1270  0.1606  0.2435  0.2453  0.2528  0.2531  0.2761  0.3258  0.3578
 1975 214   275   0.1100  0.1300  0.1500  0.2200  0.2200  0.2200  0.2200  0.2200  0.2200  0.2200  0.2800  0.3000  0.3200  0.3700  0.3700  0.3700  0.3700  0.3700  0.3700  0.3700  0.3300  0.3750  0.4200  0.4200  0.4200  0.4200  0.4200  0.4200  0.4200  0.4200  1.1000  1.1500  1.2000  1.2500  1.2500  1.2500  1.2500  1.2500  1.2500  1.2500  0.0822  0.1264  0.1602  0.2431  0.2448  0.2524  0.2527  0.2755  0.3247  0.3575
