*WATER BALANCE SUMMARY OUTPUT FILE

*DSSAT Cropping System Model Ver. 4.8.5.020 develop  JUL 07, 2025 12:51:46

!                           |----- Initial Water Content (mm) -----|------ Final Water Content (mm) -------|-------- Water Additions (mm) ---------|--------------- Water Losses (mm) ---------------|-----------|
!                           |    Soil     Mulch     Flood      Snow      Soil     Mulch     Flood      Snow    Precip     Irrig   LatFlow   Residue      Evap  Transpir    Runoff  Drainage   Tile Dr     Balance
@  Run FILEX          TN CR     SWTDi     MWTDi     FWTDi    SNOWDi      SWTD      MWTD      FWTD     SNOWD      PRCM      IRRC     LATFC     RESAC      ESCM      EPCM      ROCM      DRCM      TDFC     CUMWBAL
     1 RORO7401.WHX    1 WH    511.50      0.00      0.00      0.00   1031.81      0.01      0.00      0.00    558.10      0.00      0.00      0.00    508.68     10.35     29.46    101.91      0.00   -612.6021
     1 RORO7401.WHX    1 WH    511.50      0.00      0.00      0.00    419.41      0.05      0.00      0.00    558.10      0.00      0.00      0.05    173.07    179.16      7.86    290.10      0.00     -0.0093
     1 RORO7401.WHX    1 WH    511.50      0.00      0.00      0.00    419.41      0.05      0.00      0.00    558.10      0.00      0.00      0.05    173.07    179.16      7.86    290.10      0.00     -0.0093
     1 RORO7401.WHX    1 WH    511.50      0.00      0.00      0.00    404.28      0.03      0.00      0.00    558.10      0.00      0.00      0.02     91.49     35.43     18.66    101.91      0.00    417.8305
     1 RORO7401.WHX    1 WH    511.50      0.00      0.00      0.00    404.28      0.03      0.00      0.00    558.10      0.00      0.00      0.02     91.49     35.43     18.66   1019.09      0.00   -499.3521
     1 RORO7401.WHX    1 WH    511.50      0.00      0.00      0.00    404.28      0.03      0.00      0.00    558.10      0.00      0.00      0.02     91.49     35.43     18.66    101.91      0.00    417.8305
     1 RORO7401.WHX    1 WH    511.50      0.00      0.00      0.00    419.41      0.05      0.00      0.00    558.10      0.00      0.00      0.05    173.07    179.16      7.86    290.10      0.00     -0.0093
     1 RORO7401.WHX    1 WH    511.50      0.00      0.00      0.00    362.08      0.05      0.00      0.00    558.10      0.00      0.00      0.07     63.74     95.59      5.81      0.00      0.00    542.3940
     1 RORO7401.WHX    1 WH    511.50      0.00      0.00      0.00    362.08      0.05      0.00      0.00    558.10      0.00      0.00      0.07     63.74     95.59      5.81      0.00      0.00    542.3940
     1 RORO7401.WHX    1 WH    511.50      0.00      0.00      0.00    368.57      0.05      0.00      0.00    558.10      0.00      0.00      0.06     55.89     87.71      5.89      0.00      0.00    551.5609
     1 RORO7401.WHX    1 WH    511.50      0.00      0.00      0.00    368.57      0.05      0.00      0.00    558.10      0.00      0.00      0.06     55.89     87.71      5.89      0.00      0.00    551.5609
     1 RORO7401.WHX    1 WH    511.50      0.00      0.00      0.00    368.57      0.05      0.00      0.00    558.10      0.00      0.00      0.06     55.89     87.71      5.89      0.00      0.00    551.5609
     1 RORO7401.WHX    1 WH    511.50      0.00      0.00      0.00   1031.81      0.01      0.00      0.00    558.10      0.00      0.00      0.00    508.68     10.35     29.46    101.91      0.00   -612.6021
     1 RORO7401.WHX    1 WH    511.50      0.00      0.00      0.00    999.30      0.05      0.00      0.00    558.10      0.00      0.00      0.05    353.40     91.99     11.07     50.89      0.00   -437.0390
     1 RORO7401.WHX    1 WH    511.50      0.00      0.00      0.00    999.30      0.05      0.00      0.00    558.10      0.00      0.00      0.05    353.40     91.99     11.07    508.86      0.00   -895.0139
     1 RORO7401.WHX    1 WH    511.50      0.00      0.00      0.00    999.30      0.05      0.00      0.00    558.10      0.00      0.00      0.05    353.40     91.99     11.07    508.86      0.00   -895.0139
     1 RORO7401.WHX    1 WH    511.50      0.00      0.00      0.00   5735.83      0.00      0.00      0.00    558.10      0.00      0.00      0.00    524.87      0.02     29.38     50.89      0.00  -5271.3838
     1 RORO7401.WHX    1 WH    511.50      0.00      0.00      0.00    509.73      0.05      0.00      0.00    558.10      0.00      0.00      0.04    388.88     37.02     11.03    508.86      0.00   -385.9155
     1 RORO7401.WHX    1 WH    511.50      0.00      0.00      0.00    391.23      0.04      0.00      0.00    558.10      0.00      0.00      0.04     62.95     61.70      5.69    508.86      0.00     39.1461
     1 RORO7401.WHX    1 WH    511.50      0.00      0.00      0.00    391.23      0.04      0.00      0.00    558.10      0.00      0.00      0.04     62.95     61.70      5.69      0.00      0.00    548.0070
     1 RORO7401.WHX    1 WH    511.50      0.00      0.00      0.00    391.23      0.04      0.00      0.00    558.10      0.00      0.00      0.04     62.95     61.70      5.69    254.43      0.00    293.5766
